MODEL 1
REMARK VINA RESULT:    -8.440      0.000      0.000
REMARK INTER + INTRA:         -26.696
REMARK INTER:                 -20.830
REMARK INTRA:                  -5.866
REMARK UNBOUND:                -3.454
REMARK  30 active torsions:
REMARK  status: ('A' for Active; 'I' for Inactive)
REMARK    1  A    between atoms: CAL_5516  and  N_5518 
REMARK    2  A    between atoms: N_5518  and  CA_5519 
REMARK    3  A    between atoms: CA_5519  and  C_5521 
REMARK    4  A    between atoms: CA2_5507  and  NAD_5508 
REMARK    5  A    between atoms: CA3_5512  and  OAH_5513 
REMARK    6  A    between atoms: O1_5500  and  CA4_5501 
REMARK    7  A    between atoms: CAB_5487  and  N2_5489 
REMARK    8  A    between atoms: NAD_5508  and  CAE_5509 
REMARK    9  A    between atoms: OAH_5513  and  CAI_5514 
REMARK   10  A    between atoms: CAI_5514  and  CAL_5516 
REMARK   11  A    between atoms: NAN_5523  and  CAO_5524 
REMARK   12  A    between atoms: CAO_5524  and  CAP_5525 
REMARK   13  A    between atoms: CAO_5524  and  CBB_5528 
REMARK   14  A    between atoms: C_5521  and  NAN_5523 
REMARK   15  A    between atoms: CBB_5528  and  CBC_5529 
REMARK   16  A    between atoms: CBC_5529  and  CBD_5530 
REMARK   17  A    between atoms: CBD_5530  and  NBF_5532 
REMARK   18  A    between atoms: NBF_5532  and  CBG_5533 
REMARK   19  A    between atoms: CBG_5533  and  CBH_5534 
REMARK   20  A    between atoms: CBG_5533  and  CBP_5542 
REMARK   21  A    between atoms: CBH_5534  and  NBJ_5536 
REMARK   22  A    between atoms: NBJ_5536  and  CBK_5537 
REMARK   23  A    between atoms: CBK_5537  and  CBM_5539 
REMARK   24  A    between atoms: CBP_5542  and  CBQ_5543 
REMARK   25  A    between atoms: CBQ_5543  and  CBR_5544 
REMARK   26  A    between atoms: CBR_5544  and  CBS_5545 
REMARK   27  A    between atoms: CBS_5545  and  CBT_5546 
REMARK   28  A    between atoms: C1_5499  and  O1_5500 
REMARK   29  A    between atoms: N2_5489  and  C2_5490 
REMARK   30  A    between atoms: C5_5495  and  C6_5496 
ROOT
HETATM    1  N   MLD A1345     -14.945 -76.870 -70.682  1.00 21.46    -0.228 NA
ENDROOT
BRANCH   1   2
HETATM    2  CAL MLD A1345     -15.568 -76.007 -69.856  1.00 21.18     0.279 C 
HETATM    3  OAM MLD A1345     -16.618 -75.436 -70.128  1.00 23.64    -0.268 OA
BRANCH   2   4
HETATM    4  CAI MLD A1345     -14.875 -75.786 -68.528  1.00 19.49     0.195 C 
HETATM    5  CAJ MLD A1345     -15.780 -75.073 -67.506  1.00 18.07     0.042 C 
BRANCH   4   6
HETATM    6  OAH MLD A1345     -14.477 -77.057 -67.988  1.00 18.35    -0.345 OA
BRANCH   6   7
HETATM    7  CA3 MLD A1345     -13.623 -77.165 -66.815  1.00 19.29     0.173 C 
HETATM    8  CA4 MLD A1345     -14.345 -78.083 -65.771  1.00 20.47     0.177 C 
HETATM    9  CA5 MLD A1345     -13.350 -78.252 -64.532  1.00 19.77     0.177 C 
HETATM   10  CA6 MLD A1345     -12.841 -79.698 -64.611  1.00 20.25     0.177 C 
HETATM   11  OA5 MLD A1345     -12.121 -77.569 -64.671  1.00 19.37    -0.327 OA
HETATM   12  OA6 MLD A1345     -11.685 -79.532 -65.476  1.00 20.57    -0.327 OA
HETATM   13  CA1 MLD A1345     -11.563 -78.242 -65.820  1.00 18.75     0.262 C 
HETATM   14  CA2 MLD A1345     -12.152 -77.615 -67.146  1.00 19.58     0.192 C 
BRANCH   8  15
HETATM   15  O1  MLD A1345     -15.544 -77.370 -65.367  1.00 21.83    -0.327 OA
BRANCH  15  16
HETATM   16  C1  MLD A1345     -16.414 -78.365 -64.755  1.00 21.28     0.262 C 
HETATM   17  C2  MLD A1345     -17.819 -77.541 -64.458  1.00 21.32     0.195 C 
HETATM   18  C3  MLD A1345     -18.793 -78.529 -63.773  1.00 23.02     0.212 C 
HETATM   19  O3  MLD A1345     -20.041 -77.875 -63.535  1.00 21.43    -0.218 OA
HETATM   20  C4  MLD A1345     -19.026 -79.716 -64.658  1.00 24.18     0.214 C 
HETATM   21  O4  MLD A1345     -19.928 -80.594 -63.987  1.00 30.58    -0.218 OA
HETATM   22  C5  MLD A1345     -17.673 -80.436 -64.925  1.00 25.56     0.184 C 
HETATM   23  O5  MLD A1345     -16.770 -79.496 -65.589  1.00 24.80    -0.327 OA
BRANCH  17  24
HETATM   24  N2  MLD A1345     -17.582 -76.381 -63.558  1.00 17.81    -0.232 NA
BRANCH  24  25
HETATM   25  CAB MLD A1345     -17.777 -75.099 -63.919  1.00 18.42     0.252 C 
HETATM   26  CAA MLD A1345     -17.426 -74.020 -62.923  1.00 10.82     0.100 C 
HETATM   27  OAC MLD A1345     -18.243 -74.775 -65.042  1.00 18.37    -0.271 OA
ENDBRANCH  24  25
ENDBRANCH  17  24
BRANCH  22  28
HETATM   28  C6  MLD A1345     -17.945 -81.601 -65.848  1.00 25.09     0.215 C 
HETATM   29  O6  MLD A1345     -17.672 -82.795 -65.115  1.00 30.25    -0.218 OA
ENDBRANCH  22  28
ENDBRANCH  15  16
ENDBRANCH   8  15
BRANCH  14  30
HETATM   30  NAD MLD A1345     -11.356 -76.449 -67.498  1.00 19.73    -0.232 NA
BRANCH  30  31
HETATM   31  CAE MLD A1345     -10.899 -76.406 -68.794  1.00 19.07     0.252 C 
HETATM   32  CAF MLD A1345      -9.371 -76.346 -68.971  1.00 16.52     0.100 C 
HETATM   33  OAG MLD A1345     -11.630 -76.409 -69.796  1.00 18.46    -0.271 OA
ENDBRANCH  30  31
ENDBRANCH  14  30
ENDBRANCH   6   7
ENDBRANCH   4   6
ENDBRANCH   2   4
ENDBRANCH   1   2
BRANCH   1  34
HETATM   34  CA  MLD A1345     -15.561 -77.766 -71.695  1.00 24.10     0.186 C 
HETATM   35  CB  MLD A1345     -14.862 -77.630 -73.059  1.00 20.52     0.037 C 
BRANCH  34  36
HETATM   36  C   MLD A1345     -15.505 -79.235 -71.322  1.00 25.34     0.274 C 
HETATM   37  O   MLD A1345     -15.900 -80.113 -72.085  1.00 30.15    -0.268 OA
BRANCH  36  38
HETATM   38  NAN MLD A1345     -14.982 -79.447 -70.103  1.00 27.42    -0.227 NA
BRANCH  38  39
HETATM   39  CAO MLD A1345     -14.014 -80.495 -69.755  1.00 30.32     0.193 C 
BRANCH  39  40
HETATM   40  CAP MLD A1345     -12.604 -79.896 -69.987  1.00 34.96     0.209 C 
HETATM   41  OAQ MLD A1345     -11.734 -80.201 -69.177  1.00 39.39    -0.646 OA
HETATM   42  OBA MLD A1345     -12.391 -79.102 -71.045  1.00 36.93    -0.646 OA
ENDBRANCH  39  40
BRANCH  39  43
HETATM   43  CBB MLD A1345     -14.197 -80.908 -68.291  1.00 27.32     0.045 C 
BRANCH  43  44
HETATM   44  CBC MLD A1345     -15.181 -82.032 -68.062  1.00 25.34     0.092 C 
BRANCH  44  45
HETATM   45  CBD MLD A1345     -14.798 -83.373 -68.634  1.00 24.37     0.252 C 
HETATM   46  OBE MLD A1345     -13.740 -83.921 -68.225  1.00 25.97    -0.271 OA
BRANCH  45  47
HETATM   47  NBF MLD A1345     -15.612 -83.884 -69.524  1.00 22.82    -0.230 NA
BRANCH  47  48
HETATM   48  CBG MLD A1345     -16.540 -83.055 -70.358  1.00 25.61     0.186 C 
BRANCH  48  49
HETATM   49  CBH MLD A1345     -18.038 -83.326 -69.989  1.00 28.41     0.274 C 
HETATM   50  OBI MLD A1345     -18.565 -84.438 -70.260  1.00 31.39    -0.268 OA
BRANCH  49  51
HETATM   51  NBJ MLD A1345     -18.592 -82.292 -69.386  1.00 31.52    -0.227 NA
BRANCH  51  52
HETATM   52  CBK MLD A1345     -18.615 -80.890 -69.873  1.00 36.16     0.193 C 
HETATM   53  CBL MLD A1345     -18.325 -79.844 -68.795  1.00 34.46     0.038 C 
BRANCH  52  54
HETATM   54  CBM MLD A1345     -19.990 -80.707 -70.560  1.00 39.91     0.209 C 
HETATM   55  OBN MLD A1345     -20.906 -80.073 -69.789  1.00 45.60    -0.646 OA
HETATM   56  OBO MLD A1345     -20.261 -81.080 -71.685  1.00 40.95    -0.646 OA
ENDBRANCH  52  54
ENDBRANCH  51  52
ENDBRANCH  49  51
ENDBRANCH  48  49
BRANCH  48  57
HETATM   57  CBP MLD A1345     -16.261 -83.330 -71.860  1.00 21.92     0.034 C 
BRANCH  57  58
HETATM   58  CBQ MLD A1345     -16.969 -84.526 -72.474  1.00 20.19     0.005 C 
BRANCH  58  59
HETATM   59  CBR MLD A1345     -17.292 -84.298 -73.955  1.00 18.45     0.051 C 
BRANCH  59  60
HETATM   60  CBS MLD A1345     -16.619 -83.048 -74.543  1.00 21.14     0.387 C 
HETATM   61  NBW MLD A1345     -15.685 -83.441 -75.667  1.00 21.06     0.628 N 
BRANCH  60  62
HETATM   62  CBT MLD A1345     -17.712 -82.074 -75.041  1.00 19.97     0.224 C 
HETATM   63  OBU MLD A1345     -18.503 -81.481 -74.336  1.00 23.54    -0.646 OA
HETATM   64  OBV MLD A1345     -17.719 -81.938 -76.373  1.00 18.24    -0.646 OA
ENDBRANCH  60  62
ENDBRANCH  59  60
ENDBRANCH  58  59
ENDBRANCH  57  58
ENDBRANCH  48  57
ENDBRANCH  47  48
ENDBRANCH  45  47
ENDBRANCH  44  45
ENDBRANCH  43  44
ENDBRANCH  39  43
ENDBRANCH  38  39
ENDBRANCH  36  38
ENDBRANCH  34  36
ENDBRANCH   1  34
TORSDOF 24
ENDMDL
MODEL 2
REMARK VINA RESULT:    -8.058      1.489      3.300
REMARK INTER + INTRA:         -25.643
REMARK INTER:                 -19.795
REMARK INTRA:                  -5.848
REMARK UNBOUND:                -3.454
REMARK  30 active torsions:
REMARK  status: ('A' for Active; 'I' for Inactive)
REMARK    1  A    between atoms: CAL_5516  and  N_5518 
REMARK    2  A    between atoms: N_5518  and  CA_5519 
REMARK    3  A    between atoms: CA_5519  and  C_5521 
REMARK    4  A    between atoms: CA2_5507  and  NAD_5508 
REMARK    5  A    between atoms: CA3_5512  and  OAH_5513 
REMARK    6  A    between atoms: O1_5500  and  CA4_5501 
REMARK    7  A    between atoms: CAB_5487  and  N2_5489 
REMARK    8  A    between atoms: NAD_5508  and  CAE_5509 
REMARK    9  A    between atoms: OAH_5513  and  CAI_5514 
REMARK   10  A    between atoms: CAI_5514  and  CAL_5516 
REMARK   11  A    between atoms: NAN_5523  and  CAO_5524 
REMARK   12  A    between atoms: CAO_5524  and  CAP_5525 
REMARK   13  A    between atoms: CAO_5524  and  CBB_5528 
REMARK   14  A    between atoms: C_5521  and  NAN_5523 
REMARK   15  A    between atoms: CBB_5528  and  CBC_5529 
REMARK   16  A    between atoms: CBC_5529  and  CBD_5530 
REMARK   17  A    between atoms: CBD_5530  and  NBF_5532 
REMARK   18  A    between atoms: NBF_5532  and  CBG_5533 
REMARK   19  A    between atoms: CBG_5533  and  CBH_5534 
REMARK   20  A    between atoms: CBG_5533  and  CBP_5542 
REMARK   21  A    between atoms: CBH_5534  and  NBJ_5536 
REMARK   22  A    between atoms: NBJ_5536  and  CBK_5537 
REMARK   23  A    between atoms: CBK_5537  and  CBM_5539 
REMARK   24  A    between atoms: CBP_5542  and  CBQ_5543 
REMARK   25  A    between atoms: CBQ_5543  and  CBR_5544 
REMARK   26  A    between atoms: CBR_5544  and  CBS_5545 
REMARK   27  A    between atoms: CBS_5545  and  CBT_5546 
REMARK   28  A    between atoms: C1_5499  and  O1_5500 
REMARK   29  A    between atoms: N2_5489  and  C2_5490 
REMARK   30  A    between atoms: C5_5495  and  C6_5496 
ROOT
HETATM    1  N   MLD A1345     -14.564 -76.674 -70.460  1.00 21.46    -0.228 NA
ENDROOT
BRANCH   1   2
HETATM    2  CAL MLD A1345     -15.400 -76.055 -69.605  1.00 21.18     0.279 C 
HETATM    3  OAM MLD A1345     -16.533 -75.690 -69.899  1.00 23.64    -0.268 OA
BRANCH   2   4
HETATM    4  CAI MLD A1345     -14.842 -75.839 -68.214  1.00 19.49     0.195 C 
HETATM    5  CAJ MLD A1345     -15.839 -75.120 -67.287  1.00 18.07     0.042 C 
BRANCH   4   6
HETATM    6  OAH MLD A1345     -14.507 -77.112 -67.638  1.00 18.35    -0.345 OA
BRANCH   6   7
HETATM    7  CA3 MLD A1345     -13.579 -77.237 -66.524  1.00 19.29     0.173 C 
HETATM    8  CA4 MLD A1345     -14.259 -78.119 -65.422  1.00 20.47     0.177 C 
HETATM    9  CA5 MLD A1345     -13.188 -78.308 -64.252  1.00 19.77     0.177 C 
HETATM   10  CA6 MLD A1345     -12.733 -79.772 -64.346  1.00 20.25     0.177 C 
HETATM   11  OA5 MLD A1345     -11.948 -77.670 -64.483  1.00 19.37    -0.327 OA
HETATM   12  OA6 MLD A1345     -11.635 -79.654 -65.290  1.00 20.57    -0.327 OA
HETATM   13  CA1 MLD A1345     -11.494 -78.373 -65.659  1.00 18.75     0.262 C 
HETATM   14  CA2 MLD A1345     -12.150 -77.740 -66.949  1.00 19.58     0.192 C 
BRANCH   8  15
HETATM   15  O1  MLD A1345     -15.402 -77.360 -64.947  1.00 21.83    -0.327 OA
BRANCH  15  16
HETATM   16  C1  MLD A1345     -16.354 -78.343 -64.446  1.00 21.28     0.262 C 
HETATM   17  C2  MLD A1345     -17.768 -77.495 -64.300  1.00 21.32     0.195 C 
HETATM   18  C3  MLD A1345     -18.830 -78.469 -63.738  1.00 23.02     0.212 C 
HETATM   19  O3  MLD A1345     -20.085 -77.793 -63.635  1.00 21.43    -0.218 OA
HETATM   20  C4  MLD A1345     -18.984 -79.644 -64.656  1.00 24.18     0.214 C 
HETATM   21  O4  MLD A1345     -19.971 -80.510 -64.099  1.00 30.58    -0.218 OA
HETATM   22  C5  MLD A1345     -17.623 -80.388 -64.776  1.00 25.56     0.184 C 
HETATM   23  O5  MLD A1345     -16.634 -79.461 -65.326  1.00 24.80    -0.327 OA
BRANCH  17  24
HETATM   24  N2  MLD A1345     -17.612 -76.346 -63.367  1.00 17.81    -0.232 NA
BRANCH  24  25
HETATM   25  CAB MLD A1345     -17.773 -75.060 -63.728  1.00 18.42     0.252 C 
HETATM   26  CAA MLD A1345     -17.337 -73.990 -62.756  1.00 10.82     0.100 C 
HETATM   27  OAC MLD A1345     -18.275 -74.723 -64.833  1.00 18.37    -0.271 OA
ENDBRANCH  24  25
ENDBRANCH  17  24
BRANCH  22  28
HETATM   28  C6  MLD A1345     -17.811 -81.540 -65.736  1.00 25.09     0.215 C 
HETATM   29  O6  MLD A1345     -17.966 -82.723 -64.953  1.00 30.25    -0.218 OA
ENDBRANCH  22  28
ENDBRANCH  15  16
ENDBRANCH   8  15
BRANCH  14  30
HETATM   30  NAD MLD A1345     -11.342 -76.607 -67.370  1.00 19.73    -0.232 NA
BRANCH  30  31
HETATM   31  CAE MLD A1345     -10.650 -76.769 -68.547  1.00 19.07     0.252 C 
HETATM   32  CAF MLD A1345      -9.242 -76.149 -68.595  1.00 16.52     0.100 C 
HETATM   33  OAG MLD A1345     -11.087 -77.367 -69.541  1.00 18.46    -0.271 OA
ENDBRANCH  30  31
ENDBRANCH  14  30
ENDBRANCH   6   7
ENDBRANCH   4   6
ENDBRANCH   2   4
ENDBRANCH   1   2
BRANCH   1  34
HETATM   34  CA  MLD A1345     -14.919 -77.527 -71.625  1.00 24.10     0.186 C 
HETATM   35  CB  MLD A1345     -13.661 -78.012 -72.366  1.00 20.52     0.037 C 
BRANCH  34  36
HETATM   36  C   MLD A1345     -15.708 -78.767 -71.251  1.00 25.34     0.274 C 
HETATM   37  O   MLD A1345     -16.705 -79.114 -71.880  1.00 30.15    -0.268 OA
BRANCH  36  38
HETATM   38  NAN MLD A1345     -15.197 -79.417 -70.192  1.00 27.42    -0.227 NA
BRANCH  38  39
HETATM   39  CAO MLD A1345     -15.235 -80.869 -69.976  1.00 30.32     0.193 C 
BRANCH  39  40
HETATM   40  CAP MLD A1345     -13.899 -81.255 -69.292  1.00 34.96     0.209 C 
HETATM   41  OAQ MLD A1345     -13.940 -82.175 -68.481  1.00 39.39    -0.646 OA
HETATM   42  OBA MLD A1345     -12.779 -80.597 -69.617  1.00 36.93    -0.646 OA
ENDBRANCH  39  40
BRANCH  39  43
HETATM   43  CBB MLD A1345     -16.428 -81.231 -69.085  1.00 27.32     0.045 C 
BRANCH  43  44
HETATM   44  CBC MLD A1345     -17.620 -81.803 -69.816  1.00 25.34     0.092 C 
BRANCH  44  45
HETATM   45  CBD MLD A1345     -18.868 -80.957 -69.813  1.00 24.37     0.252 C 
HETATM   46  OBE MLD A1345     -18.947 -80.006 -68.991  1.00 25.97    -0.271 OA
BRANCH  45  47
HETATM   47  NBF MLD A1345     -19.792 -81.272 -70.687  1.00 22.82    -0.230 NA
BRANCH  47  48
HETATM   48  CBG MLD A1345     -19.602 -82.321 -71.738  1.00 25.61     0.186 C 
BRANCH  48  49
HETATM   49  CBH MLD A1345     -19.366 -81.682 -73.149  1.00 28.41     0.274 C 
HETATM   50  OBI MLD A1345     -19.666 -80.475 -73.356  1.00 31.39    -0.268 OA
BRANCH  49  51
HETATM   51  NBJ MLD A1345     -18.831 -82.540 -73.996  1.00 31.52    -0.227 NA
BRANCH  51  52
HETATM   52  CBK MLD A1345     -17.383 -82.787 -74.212  1.00 36.16     0.193 C 
HETATM   53  CBL MLD A1345     -16.461 -81.812 -73.477  1.00 34.46     0.038 C 
BRANCH  52  54
HETATM   54  CBM MLD A1345     -17.183 -82.791 -75.747  1.00 39.91     0.209 C 
HETATM   55  OBN MLD A1345     -17.830 -81.787 -76.385  1.00 45.60    -0.646 OA
HETATM   56  OBO MLD A1345     -16.512 -83.601 -76.359  1.00 40.95    -0.646 OA
ENDBRANCH  52  54
ENDBRANCH  51  52
ENDBRANCH  49  51
ENDBRANCH  48  49
BRANCH  48  57
HETATM   57  CBP MLD A1345     -20.828 -83.273 -71.739  1.00 21.92     0.034 C 
BRANCH  57  58
HETATM   58  CBQ MLD A1345     -20.596 -84.678 -71.209  1.00 20.19     0.005 C 
BRANCH  58  59
HETATM   59  CBR MLD A1345     -19.103 -85.014 -71.120  1.00 18.45     0.051 C 
BRANCH  59  60
HETATM   60  CBS MLD A1345     -18.697 -85.652 -69.784  1.00 21.14     0.387 C 
HETATM   61  NBW MLD A1345     -19.477 -86.929 -69.558  1.00 21.06     0.628 N 
BRANCH  60  62
HETATM   62  CBT MLD A1345     -17.175 -85.923 -69.796  1.00 19.97     0.224 C 
HETATM   63  OBU MLD A1345     -16.307 -85.080 -69.701  1.00 23.54    -0.646 OA
HETATM   64  OBV MLD A1345     -16.880 -87.223 -69.934  1.00 18.24    -0.646 OA
ENDBRANCH  60  62
ENDBRANCH  59  60
ENDBRANCH  58  59
ENDBRANCH  57  58
ENDBRANCH  48  57
ENDBRANCH  47  48
ENDBRANCH  45  47
ENDBRANCH  44  45
ENDBRANCH  43  44
ENDBRANCH  39  43
ENDBRANCH  38  39
ENDBRANCH  36  38
ENDBRANCH  34  36
ENDBRANCH   1  34
TORSDOF 24
ENDMDL
MODEL 3
REMARK VINA RESULT:    -7.940      5.021      9.810
REMARK INTER + INTRA:         -25.319
REMARK INTER:                 -21.363
REMARK INTRA:                  -3.957
REMARK UNBOUND:                -3.454
REMARK  30 active torsions:
REMARK  status: ('A' for Active; 'I' for Inactive)
REMARK    1  A    between atoms: CAL_5516  and  N_5518 
REMARK    2  A    between atoms: N_5518  and  CA_5519 
REMARK    3  A    between atoms: CA_5519  and  C_5521 
REMARK    4  A    between atoms: CA2_5507  and  NAD_5508 
REMARK    5  A    between atoms: CA3_5512  and  OAH_5513 
REMARK    6  A    between atoms: O1_5500  and  CA4_5501 
REMARK    7  A    between atoms: CAB_5487  and  N2_5489 
REMARK    8  A    between atoms: NAD_5508  and  CAE_5509 
REMARK    9  A    between atoms: OAH_5513  and  CAI_5514 
REMARK   10  A    between atoms: CAI_5514  and  CAL_5516 
REMARK   11  A    between atoms: NAN_5523  and  CAO_5524 
REMARK   12  A    between atoms: CAO_5524  and  CAP_5525 
REMARK   13  A    between atoms: CAO_5524  and  CBB_5528 
REMARK   14  A    between atoms: C_5521  and  NAN_5523 
REMARK   15  A    between atoms: CBB_5528  and  CBC_5529 
REMARK   16  A    between atoms: CBC_5529  and  CBD_5530 
REMARK   17  A    between atoms: CBD_5530  and  NBF_5532 
REMARK   18  A    between atoms: NBF_5532  and  CBG_5533 
REMARK   19  A    between atoms: CBG_5533  and  CBH_5534 
REMARK   20  A    between atoms: CBG_5533  and  CBP_5542 
REMARK   21  A    between atoms: CBH_5534  and  NBJ_5536 
REMARK   22  A    between atoms: NBJ_5536  and  CBK_5537 
REMARK   23  A    between atoms: CBK_5537  and  CBM_5539 
REMARK   24  A    between atoms: CBP_5542  and  CBQ_5543 
REMARK   25  A    between atoms: CBQ_5543  and  CBR_5544 
REMARK   26  A    between atoms: CBR_5544  and  CBS_5545 
REMARK   27  A    between atoms: CBS_5545  and  CBT_5546 
REMARK   28  A    between atoms: C1_5499  and  O1_5500 
REMARK   29  A    between atoms: N2_5489  and  C2_5490 
REMARK   30  A    between atoms: C5_5495  and  C6_5496 
ROOT
HETATM    1  N   MLD A1345     -18.818 -81.987 -73.624  1.00 21.46    -0.228 NA
ENDROOT
BRANCH   1   2
HETATM    2  CAL MLD A1345     -19.141 -81.416 -72.448  1.00 21.18     0.279 C 
HETATM    3  OAM MLD A1345     -18.912 -80.245 -72.170  1.00 23.64    -0.268 OA
BRANCH   2   4
HETATM    4  CAI MLD A1345     -19.833 -82.335 -71.464  1.00 19.49     0.195 C 
HETATM    5  CAJ MLD A1345     -20.796 -83.317 -72.156  1.00 18.07     0.042 C 
BRANCH   4   6
HETATM    6  OAH MLD A1345     -18.842 -83.086 -70.744  1.00 18.35    -0.345 OA
BRANCH   6   7
HETATM    7  CA3 MLD A1345     -18.498 -82.788 -69.362  1.00 19.29     0.173 C 
HETATM    8  CA4 MLD A1345     -17.743 -81.416 -69.334  1.00 20.47     0.177 C 
HETATM    9  CA5 MLD A1345     -17.454 -81.075 -67.800  1.00 19.77     0.177 C 
HETATM   10  CA6 MLD A1345     -18.403 -79.921 -67.451  1.00 20.25     0.177 C 
HETATM   11  OA5 MLD A1345     -17.927 -82.043 -66.885  1.00 19.37    -0.327 OA
HETATM   12  OA6 MLD A1345     -19.584 -80.657 -67.032  1.00 20.57    -0.327 OA
HETATM   13  CA1 MLD A1345     -19.349 -81.974 -67.125  1.00 18.75     0.262 C 
HETATM   14  CA2 MLD A1345     -19.725 -82.859 -68.378  1.00 19.58     0.192 C 
BRANCH   8  15
HETATM   15  O1  MLD A1345     -16.499 -81.625 -70.052  1.00 21.83    -0.327 OA
BRANCH  15  16
HETATM   16  C1  MLD A1345     -15.730 -80.399 -69.887  1.00 21.28     0.262 C 
HETATM   17  C2  MLD A1345     -14.156 -80.909 -69.877  1.00 21.32     0.195 C 
HETATM   18  C3  MLD A1345     -13.271 -79.656 -69.672  1.00 23.02     0.212 C 
HETATM   19  O3  MLD A1345     -11.894 -80.040 -69.700  1.00 21.43    -0.218 OA
HETATM   20  C4  MLD A1345     -13.522 -78.667 -70.769  1.00 24.18     0.214 C 
HETATM   21  O4  MLD A1345     -12.685 -77.534 -70.539  1.00 30.58    -0.218 OA
HETATM   22  C5  MLD A1345     -15.018 -78.241 -70.749  1.00 25.56     0.184 C 
HETATM   23  O5  MLD A1345     -15.842 -79.432 -70.962  1.00 24.80    -0.327 OA
BRANCH  17  24
HETATM   24  N2  MLD A1345     -13.910 -81.871 -68.769  1.00 17.81    -0.232 NA
BRANCH  24  25
HETATM   25  CAB MLD A1345     -14.126 -83.195 -68.864  1.00 18.42     0.252 C 
HETATM   26  CAA MLD A1345     -14.900 -83.870 -67.757  1.00 10.82     0.100 C 
HETATM   27  OAC MLD A1345     -13.705 -83.884 -69.831  1.00 18.37    -0.271 OA
ENDBRANCH  24  25
ENDBRANCH  17  24
BRANCH  22  28
HETATM   28  C6  MLD A1345     -15.238 -77.274 -71.889  1.00 25.09     0.215 C 
HETATM   29  O6  MLD A1345     -15.653 -76.034 -71.319  1.00 30.25    -0.218 OA
ENDBRANCH  22  28
ENDBRANCH  15  16
ENDBRANCH   8  15
BRANCH  14  30
HETATM   30  NAD MLD A1345     -19.912 -84.231 -67.934  1.00 19.73    -0.232 NA
BRANCH  30  31
HETATM   31  CAE MLD A1345     -21.177 -84.745 -68.098  1.00 19.07     0.252 C 
HETATM   32  CAF MLD A1345     -22.224 -83.789 -68.697  1.00 16.52     0.100 C 
HETATM   33  OAG MLD A1345     -21.509 -85.901 -67.795  1.00 18.46    -0.271 OA
ENDBRANCH  30  31
ENDBRANCH  14  30
ENDBRANCH   6   7
ENDBRANCH   4   6
ENDBRANCH   2   4
ENDBRANCH   1   2
BRANCH   1  34
HETATM   34  CA  MLD A1345     -17.470 -82.400 -74.097  1.00 24.10     0.186 C 
HETATM   35  CB  MLD A1345     -17.038 -83.732 -73.460  1.00 20.52     0.037 C 
BRANCH  34  36
HETATM   36  C   MLD A1345     -17.385 -82.588 -75.600  1.00 25.34     0.274 C 
HETATM   37  O   MLD A1345     -17.687 -81.690 -76.383  1.00 30.15    -0.268 OA
BRANCH  36  38
HETATM   38  NAN MLD A1345     -16.949 -83.808 -75.953  1.00 27.42    -0.227 NA
BRANCH  38  39
HETATM   39  CAO MLD A1345     -16.052 -84.106 -77.077  1.00 30.32     0.193 C 
BRANCH  39  40
HETATM   40  CAP MLD A1345     -14.777 -84.747 -76.474  1.00 34.96     0.209 C 
HETATM   41  OAQ MLD A1345     -13.704 -84.398 -76.956  1.00 39.39    -0.646 OA
HETATM   42  OBA MLD A1345     -14.892 -85.621 -75.466  1.00 36.93    -0.646 OA
ENDBRANCH  39  40
BRANCH  39  43
HETATM   43  CBB MLD A1345     -16.741 -85.071 -78.049  1.00 27.32     0.045 C 
BRANCH  43  44
HETATM   44  CBC MLD A1345     -15.869 -85.571 -79.177  1.00 25.34     0.092 C 
BRANCH  44  45
HETATM   45  CBD MLD A1345     -15.563 -84.577 -80.269  1.00 24.37     0.252 C 
HETATM   46  OBE MLD A1345     -15.617 -83.349 -79.995  1.00 25.97    -0.271 OA
BRANCH  45  47
HETATM   47  NBF MLD A1345     -15.251 -85.071 -81.441  1.00 22.82    -0.230 NA
BRANCH  47  48
HETATM   48  CBG MLD A1345     -15.938 -84.669 -82.709  1.00 25.61     0.186 C 
BRANCH  48  49
HETATM   49  CBH MLD A1345     -17.426 -85.158 -82.735  1.00 28.41     0.274 C 
HETATM   50  OBI MLD A1345     -17.695 -86.351 -83.036  1.00 31.39    -0.268 OA
BRANCH  49  51
HETATM   51  NBJ MLD A1345     -18.266 -84.198 -82.400  1.00 31.52    -0.227 NA
BRANCH  51  52
HETATM   52  CBK MLD A1345     -19.282 -84.246 -81.318  1.00 36.16     0.193 C 
HETATM   53  CBL MLD A1345     -19.440 -85.620 -80.664  1.00 34.46     0.038 C 
BRANCH  52  54
HETATM   54  CBM MLD A1345     -20.590 -83.706 -81.946  1.00 39.91     0.209 C 
HETATM   55  OBN MLD A1345     -21.214 -82.771 -81.190  1.00 45.60    -0.646 OA
HETATM   56  OBO MLD A1345     -21.045 -84.060 -83.017  1.00 40.95    -0.646 OA
ENDBRANCH  52  54
ENDBRANCH  51  52
ENDBRANCH  49  51
ENDBRANCH  48  49
BRANCH  48  57
HETATM   57  CBP MLD A1345     -15.135 -85.214 -83.921  1.00 21.92     0.034 C 
BRANCH  57  58
HETATM   58  CBQ MLD A1345     -14.388 -84.188 -84.758  1.00 20.19     0.005 C 
BRANCH  58  59
HETATM   59  CBR MLD A1345     -13.559 -83.238 -83.887  1.00 18.45     0.051 C 
BRANCH  59  60
HETATM   60  CBS MLD A1345     -12.058 -83.565 -83.881  1.00 21.14     0.387 C 
HETATM   61  NBW MLD A1345     -11.271 -82.405 -84.452  1.00 21.06     0.628 N 
BRANCH  60  62
HETATM   62  CBT MLD A1345     -11.616 -83.880 -82.433  1.00 19.97     0.224 C 
HETATM   63  OBU MLD A1345     -11.073 -83.103 -81.676  1.00 23.54    -0.646 OA
HETATM   64  OBV MLD A1345     -11.886 -85.142 -82.071  1.00 18.24    -0.646 OA
ENDBRANCH  60  62
ENDBRANCH  59  60
ENDBRANCH  58  59
ENDBRANCH  57  58
ENDBRANCH  48  57
ENDBRANCH  47  48
ENDBRANCH  45  47
ENDBRANCH  44  45
ENDBRANCH  43  44
ENDBRANCH  39  43
ENDBRANCH  38  39
ENDBRANCH  36  38
ENDBRANCH  34  36
ENDBRANCH   1  34
TORSDOF 24
ENDMDL
MODEL 4
REMARK VINA RESULT:    -7.872      3.586      5.946
REMARK INTER + INTRA:         -25.132
REMARK INTER:                 -21.234
REMARK INTRA:                  -3.898
REMARK UNBOUND:                -3.454
REMARK  30 active torsions:
REMARK  status: ('A' for Active; 'I' for Inactive)
REMARK    1  A    between atoms: CAL_5516  and  N_5518 
REMARK    2  A    between atoms: N_5518  and  CA_5519 
REMARK    3  A    between atoms: CA_5519  and  C_5521 
REMARK    4  A    between atoms: CA2_5507  and  NAD_5508 
REMARK    5  A    between atoms: CA3_5512  and  OAH_5513 
REMARK    6  A    between atoms: O1_5500  and  CA4_5501 
REMARK    7  A    between atoms: CAB_5487  and  N2_5489 
REMARK    8  A    between atoms: NAD_5508  and  CAE_5509 
REMARK    9  A    between atoms: OAH_5513  and  CAI_5514 
REMARK   10  A    between atoms: CAI_5514  and  CAL_5516 
REMARK   11  A    between atoms: NAN_5523  and  CAO_5524 
REMARK   12  A    between atoms: CAO_5524  and  CAP_5525 
REMARK   13  A    between atoms: CAO_5524  and  CBB_5528 
REMARK   14  A    between atoms: C_5521  and  NAN_5523 
REMARK   15  A    between atoms: CBB_5528  and  CBC_5529 
REMARK   16  A    between atoms: CBC_5529  and  CBD_5530 
REMARK   17  A    between atoms: CBD_5530  and  NBF_5532 
REMARK   18  A    between atoms: NBF_5532  and  CBG_5533 
REMARK   19  A    between atoms: CBG_5533  and  CBH_5534 
REMARK   20  A    between atoms: CBG_5533  and  CBP_5542 
REMARK   21  A    between atoms: CBH_5534  and  NBJ_5536 
REMARK   22  A    between atoms: NBJ_5536  and  CBK_5537 
REMARK   23  A    between atoms: CBK_5537  and  CBM_5539 
REMARK   24  A    between atoms: CBP_5542  and  CBQ_5543 
REMARK   25  A    between atoms: CBQ_5543  and  CBR_5544 
REMARK   26  A    between atoms: CBR_5544  and  CBS_5545 
REMARK   27  A    between atoms: CBS_5545  and  CBT_5546 
REMARK   28  A    between atoms: C1_5499  and  O1_5500 
REMARK   29  A    between atoms: N2_5489  and  C2_5490 
REMARK   30  A    between atoms: C5_5495  and  C6_5496 
ROOT
HETATM    1  N   MLD A1345     -15.081 -77.908 -70.324  1.00 21.46    -0.228 NA
ENDROOT
BRANCH   1   2
HETATM    2  CAL MLD A1345     -15.071 -76.591 -70.042  1.00 21.18     0.279 C 
HETATM    3  OAM MLD A1345     -15.272 -75.712 -70.871  1.00 23.64    -0.268 OA
BRANCH   2   4
HETATM    4  CAI MLD A1345     -14.798 -76.254 -68.591  1.00 19.49     0.195 C 
HETATM    5  CAJ MLD A1345     -16.022 -75.633 -67.893  1.00 18.07     0.042 C 
BRANCH   4   6
HETATM    6  OAH MLD A1345     -14.423 -77.452 -67.892  1.00 18.35    -0.345 OA
BRANCH   6   7
HETATM    7  CA3 MLD A1345     -13.600 -77.422 -66.692  1.00 19.29     0.173 C 
HETATM    8  CA4 MLD A1345     -14.335 -78.240 -65.578  1.00 20.47     0.177 C 
HETATM    9  CA5 MLD A1345     -13.372 -78.260 -64.303  1.00 19.77     0.177 C 
HETATM   10  CA6 MLD A1345     -12.837 -79.697 -64.217  1.00 20.25     0.177 C 
HETATM   11  OA5 MLD A1345     -12.150 -77.573 -64.481  1.00 19.37    -0.327 OA
HETATM   12  OA6 MLD A1345     -11.661 -79.599 -65.065  1.00 20.57    -0.327 OA
HETATM   13  CA1 MLD A1345     -11.551 -78.350 -65.539  1.00 18.75     0.262 C 
HETATM   14  CA2 MLD A1345     -12.113 -77.876 -66.937  1.00 19.58     0.192 C 
BRANCH   8  15
HETATM   15  O1  MLD A1345     -15.555 -77.511 -65.280  1.00 21.83    -0.327 OA
BRANCH  15  16
HETATM   16  C1  MLD A1345     -16.478 -78.487 -64.716  1.00 21.28     0.262 C 
HETATM   17  C2  MLD A1345     -17.870 -77.627 -64.467  1.00 21.32     0.195 C 
HETATM   18  C3  MLD A1345     -18.898 -78.595 -63.834  1.00 23.02     0.212 C 
HETATM   19  O3  MLD A1345     -20.136 -77.908 -63.639  1.00 21.43    -0.218 OA
HETATM   20  C4  MLD A1345     -19.127 -79.765 -64.742  1.00 24.18     0.214 C 
HETATM   21  O4  MLD A1345     -20.080 -80.624 -64.119  1.00 30.58    -0.218 OA
HETATM   22  C5  MLD A1345     -17.786 -80.520 -64.963  1.00 25.56     0.184 C 
HETATM   23  O5  MLD A1345     -16.830 -79.599 -65.578  1.00 24.80    -0.327 OA
BRANCH  17  24
HETATM   24  N2  MLD A1345     -17.638 -76.484 -63.543  1.00 17.81    -0.232 NA
BRANCH  24  25
HETATM   25  CAB MLD A1345     -17.739 -75.193 -63.908  1.00 18.42     0.252 C 
HETATM   26  CAA MLD A1345     -17.334 -74.138 -62.906  1.00 10.82     0.100 C 
HETATM   27  OAC MLD A1345     -18.161 -74.839 -65.040  1.00 18.37    -0.271 OA
ENDBRANCH  24  25
ENDBRANCH  17  24
BRANCH  22  28
HETATM   28  C6  MLD A1345     -18.052 -81.666 -65.910  1.00 25.09     0.215 C 
HETATM   29  O6  MLD A1345     -18.441 -81.100 -67.161  1.00 30.25    -0.218 OA
ENDBRANCH  22  28
ENDBRANCH  15  16
ENDBRANCH   8  15
BRANCH  14  30
HETATM   30  NAD MLD A1345     -11.326 -76.739 -67.389  1.00 19.73    -0.232 NA
BRANCH  30  31
HETATM   31  CAE MLD A1345     -10.798 -76.841 -68.654  1.00 19.07     0.252 C 
HETATM   32  CAF MLD A1345      -9.956 -75.645 -69.134  1.00 16.52     0.100 C 
HETATM   33  OAG MLD A1345     -10.960 -77.813 -69.406  1.00 18.46    -0.271 OA
ENDBRANCH  30  31
ENDBRANCH  14  30
ENDBRANCH   6   7
ENDBRANCH   4   6
ENDBRANCH   2   4
ENDBRANCH   1   2
BRANCH   1  34
HETATM   34  CA  MLD A1345     -15.749 -78.590 -71.463  1.00 24.10     0.186 C 
HETATM   35  CB  MLD A1345     -14.837 -78.633 -72.701  1.00 20.52     0.037 C 
BRANCH  34  36
HETATM   36  C   MLD A1345     -16.145 -80.024 -71.165  1.00 25.34     0.274 C 
HETATM   37  O   MLD A1345     -15.449 -80.755 -70.465  1.00 30.15    -0.268 OA
BRANCH  36  38
HETATM   38  NAN MLD A1345     -17.310 -80.376 -71.733  1.00 27.42    -0.227 NA
BRANCH  38  39
HETATM   39  CAO MLD A1345     -17.538 -81.577 -72.549  1.00 30.32     0.193 C 
BRANCH  39  40
HETATM   40  CAP MLD A1345     -19.059 -81.635 -72.841  1.00 34.96     0.209 C 
HETATM   41  OAQ MLD A1345     -19.598 -80.583 -73.169  1.00 39.39    -0.646 OA
HETATM   42  OBA MLD A1345     -19.704 -82.805 -72.743  1.00 36.93    -0.646 OA
ENDBRANCH  39  40
BRANCH  39  43
HETATM   43  CBB MLD A1345     -16.735 -81.482 -73.850  1.00 27.32     0.045 C 
BRANCH  43  44
HETATM   44  CBC MLD A1345     -16.521 -82.795 -74.566  1.00 25.34     0.092 C 
BRANCH  44  45
HETATM   45  CBD MLD A1345     -17.132 -82.908 -75.940  1.00 24.37     0.252 C 
HETATM   46  OBE MLD A1345     -17.838 -81.955 -76.363  1.00 25.97    -0.271 OA
BRANCH  45  47
HETATM   47  NBF MLD A1345     -16.873 -84.005 -76.608  1.00 22.82    -0.230 NA
BRANCH  47  48
HETATM   48  CBG MLD A1345     -15.958 -84.046 -77.792  1.00 25.61     0.186 C 
BRANCH  48  49
HETATM   49  CBH MLD A1345     -16.653 -84.705 -79.032  1.00 28.41     0.274 C 
HETATM   50  OBI MLD A1345     -17.311 -85.771 -78.895  1.00 31.39    -0.268 OA
BRANCH  49  51
HETATM   51  NBJ MLD A1345     -16.463 -84.006 -80.134  1.00 31.52    -0.227 NA
BRANCH  51  52
HETATM   52  CBK MLD A1345     -15.899 -84.505 -81.414  1.00 36.16     0.193 C 
HETATM   53  CBL MLD A1345     -14.657 -83.750 -81.891  1.00 34.46     0.038 C 
BRANCH  52  54
HETATM   54  CBM MLD A1345     -17.069 -84.476 -82.427  1.00 39.91     0.209 C 
HETATM   55  OBN MLD A1345     -16.781 -85.065 -83.612  1.00 45.60    -0.646 OA
HETATM   56  OBO MLD A1345     -18.161 -83.982 -82.215  1.00 40.95    -0.646 OA
ENDBRANCH  52  54
ENDBRANCH  51  52
ENDBRANCH  49  51
ENDBRANCH  48  49
BRANCH  48  57
HETATM   57  CBP MLD A1345     -14.652 -84.791 -77.404  1.00 21.92     0.034 C 
BRANCH  57  58
HETATM   58  CBQ MLD A1345     -13.536 -84.787 -78.435  1.00 20.19     0.005 C 
BRANCH  58  59
HETATM   59  CBR MLD A1345     -12.681 -86.056 -78.354  1.00 18.45     0.051 C 
BRANCH  59  60
HETATM   60  CBS MLD A1345     -11.383 -85.975 -79.171  1.00 21.14     0.387 C 
HETATM   61  NBW MLD A1345     -10.433 -87.075 -78.749  1.00 21.06     0.628 N 
BRANCH  60  62
HETATM   62  CBT MLD A1345     -11.726 -86.079 -80.675  1.00 19.97     0.224 C 
HETATM   63  OBU MLD A1345     -12.712 -86.613 -81.139  1.00 23.54    -0.646 OA
HETATM   64  OBV MLD A1345     -10.798 -85.514 -81.459  1.00 18.24    -0.646 OA
ENDBRANCH  60  62
ENDBRANCH  59  60
ENDBRANCH  58  59
ENDBRANCH  57  58
ENDBRANCH  48  57
ENDBRANCH  47  48
ENDBRANCH  45  47
ENDBRANCH  44  45
ENDBRANCH  43  44
ENDBRANCH  39  43
ENDBRANCH  38  39
ENDBRANCH  36  38
ENDBRANCH  34  36
ENDBRANCH   1  34
TORSDOF 24
ENDMDL
MODEL 5
REMARK VINA RESULT:    -7.867      1.778      2.753
REMARK INTER + INTRA:         -25.117
REMARK INTER:                 -18.728
REMARK INTRA:                  -6.389
REMARK UNBOUND:                -3.454
REMARK  30 active torsions:
REMARK  status: ('A' for Active; 'I' for Inactive)
REMARK    1  A    between atoms: CAL_5516  and  N_5518 
REMARK    2  A    between atoms: N_5518  and  CA_5519 
REMARK    3  A    between atoms: CA_5519  and  C_5521 
REMARK    4  A    between atoms: CA2_5507  and  NAD_5508 
REMARK    5  A    between atoms: CA3_5512  and  OAH_5513 
REMARK    6  A    between atoms: O1_5500  and  CA4_5501 
REMARK    7  A    between atoms: CAB_5487  and  N2_5489 
REMARK    8  A    between atoms: NAD_5508  and  CAE_5509 
REMARK    9  A    between atoms: OAH_5513  and  CAI_5514 
REMARK   10  A    between atoms: CAI_5514  and  CAL_5516 
REMARK   11  A    between atoms: NAN_5523  and  CAO_5524 
REMARK   12  A    between atoms: CAO_5524  and  CAP_5525 
REMARK   13  A    between atoms: CAO_5524  and  CBB_5528 
REMARK   14  A    between atoms: C_5521  and  NAN_5523 
REMARK   15  A    between atoms: CBB_5528  and  CBC_5529 
REMARK   16  A    between atoms: CBC_5529  and  CBD_5530 
REMARK   17  A    between atoms: CBD_5530  and  NBF_5532 
REMARK   18  A    between atoms: NBF_5532  and  CBG_5533 
REMARK   19  A    between atoms: CBG_5533  and  CBH_5534 
REMARK   20  A    between atoms: CBG_5533  and  CBP_5542 
REMARK   21  A    between atoms: CBH_5534  and  NBJ_5536 
REMARK   22  A    between atoms: NBJ_5536  and  CBK_5537 
REMARK   23  A    between atoms: CBK_5537  and  CBM_5539 
REMARK   24  A    between atoms: CBP_5542  and  CBQ_5543 
REMARK   25  A    between atoms: CBQ_5543  and  CBR_5544 
REMARK   26  A    between atoms: CBR_5544  and  CBS_5545 
REMARK   27  A    between atoms: CBS_5545  and  CBT_5546 
REMARK   28  A    between atoms: C1_5499  and  O1_5500 
REMARK   29  A    between atoms: N2_5489  and  C2_5490 
REMARK   30  A    between atoms: C5_5495  and  C6_5496 
ROOT
HETATM    1  N   MLD A1345     -14.910 -77.156 -70.524  1.00 21.46    -0.228 NA
ENDROOT
BRANCH   1   2
HETATM    2  CAL MLD A1345     -15.537 -76.173 -69.850  1.00 21.18     0.279 C 
HETATM    3  OAM MLD A1345     -16.491 -75.542 -70.290  1.00 23.64    -0.268 OA
BRANCH   2   4
HETATM    4  CAI MLD A1345     -14.981 -75.892 -68.470  1.00 19.49     0.195 C 
HETATM    5  CAJ MLD A1345     -16.010 -75.211 -67.550  1.00 18.07     0.042 C 
BRANCH   4   6
HETATM    6  OAH MLD A1345     -14.568 -77.130 -67.869  1.00 18.35    -0.345 OA
BRANCH   6   7
HETATM    7  CA3 MLD A1345     -13.623 -77.176 -66.763  1.00 19.29     0.173 C 
HETATM    8  CA4 MLD A1345     -14.251 -78.048 -65.623  1.00 20.47     0.177 C 
HETATM    9  CA5 MLD A1345     -13.160 -78.150 -64.460  1.00 19.77     0.177 C 
HETATM   10  CA6 MLD A1345     -12.642 -79.594 -64.510  1.00 20.25     0.177 C 
HETATM   11  OA5 MLD A1345     -11.953 -77.466 -64.728  1.00 19.37    -0.327 OA
HETATM   12  OA6 MLD A1345     -11.560 -79.461 -65.471  1.00 20.57    -0.327 OA
HETATM   13  CA1 MLD A1345     -11.480 -78.189 -65.885  1.00 18.75     0.262 C 
HETATM   14  CA2 MLD A1345     -12.178 -77.631 -67.188  1.00 19.58     0.192 C 
BRANCH   8  15
HETATM   15  O1  MLD A1345     -15.422 -77.324 -65.160  1.00 21.83    -0.327 OA
BRANCH  15  16
HETATM   16  C1  MLD A1345     -16.332 -78.332 -64.631  1.00 21.28     0.262 C 
HETATM   17  C2  MLD A1345     -17.754 -77.513 -64.412  1.00 21.32     0.195 C 
HETATM   18  C3  MLD A1345     -18.771 -78.516 -63.817  1.00 23.02     0.212 C 
HETATM   19  O3  MLD A1345     -20.033 -77.865 -63.650  1.00 21.43    -0.218 OA
HETATM   20  C4  MLD A1345     -18.943 -79.681 -64.743  1.00 24.18     0.214 C 
HETATM   21  O4  MLD A1345     -19.889 -80.573 -64.155  1.00 30.58    -0.218 OA
HETATM   22  C5  MLD A1345     -17.575 -80.397 -64.934  1.00 25.56     0.184 C 
HETATM   23  O5  MLD A1345     -16.629 -79.443 -65.513  1.00 24.80    -0.327 OA
BRANCH  17  24
HETATM   24  N2  MLD A1345     -17.579 -76.374 -63.471  1.00 17.81    -0.232 NA
BRANCH  24  25
HETATM   25  CAB MLD A1345     -17.769 -75.086 -63.809  1.00 18.42     0.252 C 
HETATM   26  CAA MLD A1345     -17.414 -74.025 -62.795  1.00 10.82     0.100 C 
HETATM   27  OAC MLD A1345     -18.234 -74.740 -64.927  1.00 18.37    -0.271 OA
ENDBRANCH  24  25
ENDBRANCH  17  24
BRANCH  22  28
HETATM   28  C6  MLD A1345     -17.783 -81.540 -65.900  1.00 25.09     0.215 C 
HETATM   29  O6  MLD A1345     -17.476 -82.746 -65.202  1.00 30.25    -0.218 OA
ENDBRANCH  22  28
ENDBRANCH  15  16
ENDBRANCH   8  15
BRANCH  14  30
HETATM   30  NAD MLD A1345     -11.425 -76.478 -67.657  1.00 19.73    -0.232 NA
BRANCH  30  31
HETATM   31  CAE MLD A1345     -11.215 -76.413 -69.014  1.00 19.07     0.252 C 
HETATM   32  CAF MLD A1345     -10.108 -75.449 -69.481  1.00 16.52     0.100 C 
HETATM   33  OAG MLD A1345     -11.850 -77.065 -69.855  1.00 18.46    -0.271 OA
ENDBRANCH  30  31
ENDBRANCH  14  30
ENDBRANCH   6   7
ENDBRANCH   4   6
ENDBRANCH   2   4
ENDBRANCH   1   2
BRANCH   1  34
HETATM   34  CA  MLD A1345     -15.245 -77.697 -71.868  1.00 24.10     0.186 C 
HETATM   35  CB  MLD A1345     -14.020 -77.677 -72.798  1.00 20.52     0.037 C 
BRANCH  34  36
HETATM   36  C   MLD A1345     -15.746 -79.128 -71.839  1.00 25.34     0.274 C 
HETATM   37  O   MLD A1345     -15.934 -79.769 -72.870  1.00 30.15    -0.268 OA
BRANCH  36  38
HETATM   38  NAN MLD A1345     -15.944 -79.590 -70.593  1.00 27.42    -0.227 NA
BRANCH  38  39
HETATM   39  CAO MLD A1345     -15.787 -80.985 -70.161  1.00 30.32     0.193 C 
BRANCH  39  40
HETATM   40  CAP MLD A1345     -14.587 -81.017 -69.181  1.00 34.96     0.209 C 
HETATM   41  OAQ MLD A1345     -14.712 -80.387 -68.135  1.00 39.39    -0.646 OA
HETATM   42  OBA MLD A1345     -13.496 -81.725 -69.499  1.00 36.93    -0.646 OA
ENDBRANCH  39  40
BRANCH  39  43
HETATM   43  CBB MLD A1345     -17.069 -81.462 -69.470  1.00 27.32     0.045 C 
BRANCH  43  44
HETATM   44  CBC MLD A1345     -18.212 -80.474 -69.491  1.00 25.34     0.092 C 
BRANCH  44  45
HETATM   45  CBD MLD A1345     -19.564 -81.034 -69.855  1.00 24.37     0.252 C 
HETATM   46  OBE MLD A1345     -20.500 -80.228 -70.104  1.00 25.97    -0.271 OA
BRANCH  45  47
HETATM   47  NBF MLD A1345     -19.667 -82.339 -69.894  1.00 22.82    -0.230 NA
BRANCH  47  48
HETATM   48  CBG MLD A1345     -20.920 -83.050 -70.303  1.00 25.61     0.186 C 
BRANCH  48  49
HETATM   49  CBH MLD A1345     -21.748 -83.515 -69.057  1.00 28.41     0.274 C 
HETATM   50  OBI MLD A1345     -22.813 -82.917 -68.746  1.00 31.39    -0.268 OA
BRANCH  49  51
HETATM   51  NBJ MLD A1345     -21.198 -84.554 -68.459  1.00 31.52    -0.227 NA
BRANCH  51  52
HETATM   52  CBK MLD A1345     -20.292 -84.522 -67.282  1.00 36.16     0.193 C 
HETATM   53  CBL MLD A1345     -18.864 -84.987 -67.574  1.00 34.46     0.038 C 
BRANCH  52  54
HETATM   54  CBM MLD A1345     -21.002 -85.353 -66.185  1.00 39.91     0.209 C 
HETATM   55  OBN MLD A1345     -22.311 -85.046 -66.028  1.00 45.60    -0.646 OA
HETATM   56  OBO MLD A1345     -20.468 -86.212 -65.509  1.00 40.95    -0.646 OA
ENDBRANCH  52  54
ENDBRANCH  51  52
ENDBRANCH  49  51
ENDBRANCH  48  49
BRANCH  48  57
HETATM   57  CBP MLD A1345     -20.553 -84.244 -71.225  1.00 21.92     0.034 C 
BRANCH  57  58
HETATM   58  CBQ MLD A1345     -19.072 -84.547 -71.386  1.00 20.19     0.005 C 
BRANCH  58  59
HETATM   59  CBR MLD A1345     -18.562 -84.171 -72.781  1.00 18.45     0.051 C 
BRANCH  59  60
HETATM   60  CBS MLD A1345     -17.833 -82.819 -72.823  1.00 21.14     0.387 C 
HETATM   61  NBW MLD A1345     -16.443 -82.996 -73.394  1.00 21.06     0.628 N 
BRANCH  60  62
HETATM   62  CBT MLD A1345     -18.661 -81.825 -73.670  1.00 19.97     0.224 C 
HETATM   63  OBU MLD A1345     -19.687 -81.281 -73.316  1.00 23.54    -0.646 OA
HETATM   64  OBV MLD A1345     -18.135 -81.611 -74.883  1.00 18.24    -0.646 OA
ENDBRANCH  60  62
ENDBRANCH  59  60
ENDBRANCH  58  59
ENDBRANCH  57  58
ENDBRANCH  48  57
ENDBRANCH  47  48
ENDBRANCH  45  47
ENDBRANCH  44  45
ENDBRANCH  43  44
ENDBRANCH  39  43
ENDBRANCH  38  39
ENDBRANCH  36  38
ENDBRANCH  34  36
ENDBRANCH   1  34
TORSDOF 24
ENDMDL
MODEL 6
REMARK VINA RESULT:    -7.830      5.738     14.410
REMARK INTER + INTRA:         -25.016
REMARK INTER:                 -22.972
REMARK INTRA:                  -2.044
REMARK UNBOUND:                -3.454
REMARK  30 active torsions:
REMARK  status: ('A' for Active; 'I' for Inactive)
REMARK    1  A    between atoms: CAL_5516  and  N_5518 
REMARK    2  A    between atoms: N_5518  and  CA_5519 
REMARK    3  A    between atoms: CA_5519  and  C_5521 
REMARK    4  A    between atoms: CA2_5507  and  NAD_5508 
REMARK    5  A    between atoms: CA3_5512  and  OAH_5513 
REMARK    6  A    between atoms: O1_5500  and  CA4_5501 
REMARK    7  A    between atoms: CAB_5487  and  N2_5489 
REMARK    8  A    between atoms: NAD_5508  and  CAE_5509 
REMARK    9  A    between atoms: OAH_5513  and  CAI_5514 
REMARK   10  A    between atoms: CAI_5514  and  CAL_5516 
REMARK   11  A    between atoms: NAN_5523  and  CAO_5524 
REMARK   12  A    between atoms: CAO_5524  and  CAP_5525 
REMARK   13  A    between atoms: CAO_5524  and  CBB_5528 
REMARK   14  A    between atoms: C_5521  and  NAN_5523 
REMARK   15  A    between atoms: CBB_5528  and  CBC_5529 
REMARK   16  A    between atoms: CBC_5529  and  CBD_5530 
REMARK   17  A    between atoms: CBD_5530  and  NBF_5532 
REMARK   18  A    between atoms: NBF_5532  and  CBG_5533 
REMARK   19  A    between atoms: CBG_5533  and  CBH_5534 
REMARK   20  A    between atoms: CBG_5533  and  CBP_5542 
REMARK   21  A    between atoms: CBH_5534  and  NBJ_5536 
REMARK   22  A    between atoms: NBJ_5536  and  CBK_5537 
REMARK   23  A    between atoms: CBK_5537  and  CBM_5539 
REMARK   24  A    between atoms: CBP_5542  and  CBQ_5543 
REMARK   25  A    between atoms: CBQ_5543  and  CBR_5544 
REMARK   26  A    between atoms: CBR_5544  and  CBS_5545 
REMARK   27  A    between atoms: CBS_5545  and  CBT_5546 
REMARK   28  A    between atoms: C1_5499  and  O1_5500 
REMARK   29  A    between atoms: N2_5489  and  C2_5490 
REMARK   30  A    between atoms: C5_5495  and  C6_5496 
ROOT
HETATM    1  N   MLD A1345     -15.623 -83.633 -76.484  1.00 21.46    -0.228 NA
ENDROOT
BRANCH   1   2
HETATM    2  CAL MLD A1345     -14.999 -84.565 -77.229  1.00 21.18     0.279 C 
HETATM    3  OAM MLD A1345     -13.818 -84.866 -77.100  1.00 23.64    -0.268 OA
BRANCH   2   4
HETATM    4  CAI MLD A1345     -15.874 -85.246 -78.259  1.00 19.49     0.195 C 
HETATM    5  CAJ MLD A1345     -16.790 -86.316 -77.636  1.00 18.07     0.042 C 
BRANCH   4   6
HETATM    6  OAH MLD A1345     -16.690 -84.259 -78.911  1.00 18.35    -0.345 OA
BRANCH   6   7
HETATM    7  CA3 MLD A1345     -17.085 -84.379 -80.306  1.00 19.29     0.173 C 
HETATM    8  CA4 MLD A1345     -15.959 -85.162 -81.064  1.00 20.47     0.177 C 
HETATM    9  CA5 MLD A1345     -16.457 -85.352 -82.570  1.00 19.77     0.177 C 
HETATM   10  CA6 MLD A1345     -16.803 -86.842 -82.702  1.00 20.25     0.177 C 
HETATM   11  OA5 MLD A1345     -17.729 -84.798 -82.841  1.00 19.37    -0.327 OA
HETATM   12  OA6 MLD A1345     -18.192 -86.837 -82.276  1.00 20.57    -0.327 OA
HETATM   13  CA1 MLD A1345     -18.562 -85.587 -81.964  1.00 18.75     0.262 C 
HETATM   14  CA2 MLD A1345     -18.523 -84.985 -80.504  1.00 19.58     0.192 C 
BRANCH   8  15
HETATM   15  O1  MLD A1345     -14.780 -84.315 -81.021  1.00 21.83    -0.327 OA
BRANCH  15  16
HETATM   16  C1  MLD A1345     -13.730 -85.057 -81.707  1.00 21.28     0.262 C 
HETATM   17  C2  MLD A1345     -12.560 -83.922 -81.996  1.00 21.32     0.195 C 
HETATM   18  C3  MLD A1345     -11.414 -84.630 -82.757  1.00 23.02     0.212 C 
HETATM   19  O3  MLD A1345     -10.356 -83.698 -82.993  1.00 21.43    -0.218 OA
HETATM   20  C4  MLD A1345     -10.886 -85.771 -81.941  1.00 24.18     0.214 C 
HETATM   21  O4  MLD A1345      -9.834 -86.389 -82.681  1.00 30.58    -0.218 OA
HETATM   22  C5  MLD A1345     -12.029 -86.792 -81.678  1.00 25.56     0.184 C 
HETATM   23  O5  MLD A1345     -13.097 -86.114 -80.943  1.00 24.80    -0.327 OA
BRANCH  17  24
HETATM   24  N2  MLD A1345     -13.087 -82.807 -82.828  1.00 17.81    -0.232 NA
BRANCH  24  25
HETATM   25  CAB MLD A1345     -13.267 -82.884 -84.159  1.00 18.42     0.252 C 
HETATM   26  CAA MLD A1345     -14.420 -83.712 -84.674  1.00 10.82     0.100 C 
HETATM   27  OAC MLD A1345     -12.511 -82.302 -84.981  1.00 18.37    -0.271 OA
ENDBRANCH  24  25
ENDBRANCH  17  24
BRANCH  22  28
HETATM   28  C6  MLD A1345     -11.467 -87.904 -80.824  1.00 25.09     0.215 C 
HETATM   29  O6  MLD A1345     -12.077 -89.120 -81.256  1.00 30.25    -0.218 OA
ENDBRANCH  22  28
ENDBRANCH  15  16
ENDBRANCH   8  15
BRANCH  14  30
HETATM   30  NAD MLD A1345     -19.514 -83.924 -80.415  1.00 19.73    -0.232 NA
BRANCH  30  31
HETATM   31  CAE MLD A1345     -20.746 -84.208 -80.954  1.00 19.07     0.252 C 
HETATM   32  CAF MLD A1345     -21.192 -83.318 -82.129  1.00 16.52     0.100 C 
HETATM   33  OAG MLD A1345     -21.494 -85.113 -80.557  1.00 18.46    -0.271 OA
ENDBRANCH  30  31
ENDBRANCH  14  30
ENDBRANCH   6   7
ENDBRANCH   4   6
ENDBRANCH   2   4
ENDBRANCH   1   2
BRANCH   1  34
HETATM   34  CA  MLD A1345     -16.812 -83.812 -75.609  1.00 24.10     0.186 C 
HETATM   35  CB  MLD A1345     -16.413 -84.381 -74.236  1.00 20.52     0.037 C 
BRANCH  34  36
HETATM   36  C   MLD A1345     -17.570 -82.525 -75.343  1.00 25.34     0.274 C 
HETATM   37  O   MLD A1345     -17.801 -81.714 -76.237  1.00 30.15    -0.268 OA
BRANCH  36  38
HETATM   38  NAN MLD A1345     -17.948 -82.393 -74.061  1.00 27.42    -0.227 NA
BRANCH  38  39
HETATM   39  CAO MLD A1345     -17.796 -81.184 -73.242  1.00 30.32     0.193 C 
BRANCH  39  40
HETATM   40  CAP MLD A1345     -18.820 -81.297 -72.084  1.00 34.96     0.209 C 
HETATM   41  OAQ MLD A1345     -18.483 -81.969 -71.114  1.00 39.39    -0.646 OA
HETATM   42  OBA MLD A1345     -19.994 -80.659 -72.178  1.00 36.93    -0.646 OA
ENDBRANCH  39  40
BRANCH  39  43
HETATM   43  CBB MLD A1345     -16.365 -81.100 -72.700  1.00 27.32     0.045 C 
BRANCH  43  44
HETATM   44  CBC MLD A1345     -15.737 -79.727 -72.764  1.00 25.34     0.092 C 
BRANCH  44  45
HETATM   45  CBD MLD A1345     -15.771 -78.923 -71.490  1.00 24.37     0.252 C 
HETATM   46  OBE MLD A1345     -16.163 -79.486 -70.434  1.00 25.97    -0.271 OA
BRANCH  45  47
HETATM   47  NBF MLD A1345     -15.376 -77.676 -71.573  1.00 22.82    -0.230 NA
BRANCH  47  48
HETATM   48  CBG MLD A1345     -14.715 -76.950 -70.442  1.00 25.61     0.186 C 
BRANCH  48  49
HETATM   49  CBH MLD A1345     -13.258 -77.472 -70.198  1.00 28.41     0.274 C 
HETATM   50  OBI MLD A1345     -12.705 -78.224 -71.045  1.00 31.39    -0.268 OA
BRANCH  49  51
HETATM   51  NBJ MLD A1345     -12.754 -77.016 -69.067  1.00 31.52    -0.227 NA
BRANCH  51  52
HETATM   52  CBK MLD A1345     -11.349 -77.150 -68.606  1.00 36.16     0.193 C 
HETATM   53  CBL MLD A1345     -11.180 -77.124 -67.086  1.00 34.46     0.038 C 
BRANCH  52  54
HETATM   54  CBM MLD A1345     -10.560 -76.036 -69.337  1.00 39.91     0.209 C 
HETATM   55  OBN MLD A1345      -9.252 -76.328 -69.529  1.00 45.60    -0.646 OA
HETATM   56  OBO MLD A1345     -11.036 -74.984 -69.720  1.00 40.95    -0.646 OA
ENDBRANCH  52  54
ENDBRANCH  51  52
ENDBRANCH  49  51
ENDBRANCH  48  49
BRANCH  48  57
HETATM   57  CBP MLD A1345     -15.592 -77.081 -69.168  1.00 21.92     0.034 C 
BRANCH  57  58
HETATM   58  CBQ MLD A1345     -16.286 -75.816 -68.688  1.00 20.19     0.005 C 
BRANCH  58  59
HETATM   59  CBR MLD A1345     -15.930 -75.489 -67.234  1.00 18.45     0.051 C 
BRANCH  59  60
HETATM   60  CBS MLD A1345     -16.374 -76.568 -66.236  1.00 21.14     0.387 C 
HETATM   61  NBW MLD A1345     -15.171 -77.142 -65.520  1.00 21.06     0.628 N 
BRANCH  60  62
HETATM   62  CBT MLD A1345     -17.376 -75.949 -65.235  1.00 19.97     0.224 C 
HETATM   63  OBU MLD A1345     -18.262 -75.168 -65.514  1.00 23.54    -0.646 OA
HETATM   64  OBV MLD A1345     -17.171 -76.357 -63.975  1.00 18.24    -0.646 OA
ENDBRANCH  60  62
ENDBRANCH  59  60
ENDBRANCH  58  59
ENDBRANCH  57  58
ENDBRANCH  48  57
ENDBRANCH  47  48
ENDBRANCH  45  47
ENDBRANCH  44  45
ENDBRANCH  43  44
ENDBRANCH  39  43
ENDBRANCH  38  39
ENDBRANCH  36  38
ENDBRANCH  34  36
ENDBRANCH   1  34
TORSDOF 24
ENDMDL
MODEL 7
REMARK VINA RESULT:    -7.806      2.761      4.798
REMARK INTER + INTRA:         -24.949
REMARK INTER:                 -20.887
REMARK INTRA:                  -4.062
REMARK UNBOUND:                -3.454
REMARK  30 active torsions:
REMARK  status: ('A' for Active; 'I' for Inactive)
REMARK    1  A    between atoms: CAL_5516  and  N_5518 
REMARK    2  A    between atoms: N_5518  and  CA_5519 
REMARK    3  A    between atoms: CA_5519  and  C_5521 
REMARK    4  A    between atoms: CA2_5507  and  NAD_5508 
REMARK    5  A    between atoms: CA3_5512  and  OAH_5513 
REMARK    6  A    between atoms: O1_5500  and  CA4_5501 
REMARK    7  A    between atoms: CAB_5487  and  N2_5489 
REMARK    8  A    between atoms: NAD_5508  and  CAE_5509 
REMARK    9  A    between atoms: OAH_5513  and  CAI_5514 
REMARK   10  A    between atoms: CAI_5514  and  CAL_5516 
REMARK   11  A    between atoms: NAN_5523  and  CAO_5524 
REMARK   12  A    between atoms: CAO_5524  and  CAP_5525 
REMARK   13  A    between atoms: CAO_5524  and  CBB_5528 
REMARK   14  A    between atoms: C_5521  and  NAN_5523 
REMARK   15  A    between atoms: CBB_5528  and  CBC_5529 
REMARK   16  A    between atoms: CBC_5529  and  CBD_5530 
REMARK   17  A    between atoms: CBD_5530  and  NBF_5532 
REMARK   18  A    between atoms: NBF_5532  and  CBG_5533 
REMARK   19  A    between atoms: CBG_5533  and  CBH_5534 
REMARK   20  A    between atoms: CBG_5533  and  CBP_5542 
REMARK   21  A    between atoms: CBH_5534  and  NBJ_5536 
REMARK   22  A    between atoms: NBJ_5536  and  CBK_5537 
REMARK   23  A    between atoms: CBK_5537  and  CBM_5539 
REMARK   24  A    between atoms: CBP_5542  and  CBQ_5543 
REMARK   25  A    between atoms: CBQ_5543  and  CBR_5544 
REMARK   26  A    between atoms: CBR_5544  and  CBS_5545 
REMARK   27  A    between atoms: CBS_5545  and  CBT_5546 
REMARK   28  A    between atoms: C1_5499  and  O1_5500 
REMARK   29  A    between atoms: N2_5489  and  C2_5490 
REMARK   30  A    between atoms: C5_5495  and  C6_5496 
ROOT
HETATM    1  N   MLD A1345     -15.315 -77.778 -70.304  1.00 21.46    -0.228 NA
ENDROOT
BRANCH   1   2
HETATM    2  CAL MLD A1345     -15.236 -76.452 -70.083  1.00 21.18     0.279 C 
HETATM    3  OAM MLD A1345     -15.611 -75.602 -70.881  1.00 23.64    -0.268 OA
BRANCH   2   4
HETATM    4  CAI MLD A1345     -14.646 -76.065 -68.743  1.00 19.49     0.195 C 
HETATM    5  CAJ MLD A1345     -15.650 -75.302 -67.859  1.00 18.07     0.042 C 
BRANCH   4   6
HETATM    6  OAH MLD A1345     -14.229 -77.254 -68.052  1.00 18.35    -0.345 OA
BRANCH   6   7
HETATM    7  CA3 MLD A1345     -13.390 -77.204 -66.864  1.00 19.29     0.173 C 
HETATM    8  CA4 MLD A1345     -14.086 -78.047 -65.741  1.00 20.47     0.177 C 
HETATM    9  CA5 MLD A1345     -13.104 -78.043 -64.480  1.00 19.77     0.177 C 
HETATM   10  CA6 MLD A1345     -12.526 -79.463 -64.408  1.00 20.25     0.177 C 
HETATM   11  OA5 MLD A1345     -11.905 -77.319 -64.673  1.00 19.37    -0.327 OA
HETATM   12  OA6 MLD A1345     -11.366 -79.329 -65.272  1.00 20.57    -0.327 OA
HETATM   13  CA1 MLD A1345     -11.299 -78.075 -65.743  1.00 18.75     0.262 C 
HETATM   14  CA2 MLD A1345     -11.894 -77.613 -67.131  1.00 19.58     0.192 C 
BRANCH   8  15
HETATM   15  O1  MLD A1345     -15.322 -77.355 -65.425  1.00 21.83    -0.327 OA
BRANCH  15  16
HETATM   16  C1  MLD A1345     -16.225 -78.370 -64.899  1.00 21.28     0.262 C 
HETATM   17  C2  MLD A1345     -17.629 -77.544 -64.602  1.00 21.32     0.195 C 
HETATM   18  C3  MLD A1345     -18.637 -78.555 -64.006  1.00 23.02     0.212 C 
HETATM   19  O3  MLD A1345     -19.884 -77.897 -63.773  1.00 21.43    -0.218 OA
HETATM   20  C4  MLD A1345     -18.855 -79.686 -64.965  1.00 24.18     0.214 C 
HETATM   21  O4  MLD A1345     -19.790 -80.588 -64.375  1.00 30.58    -0.218 OA
HETATM   22  C5  MLD A1345     -17.504 -80.410 -65.228  1.00 25.56     0.184 C 
HETATM   23  O5  MLD A1345     -16.567 -79.447 -65.807  1.00 24.80    -0.327 OA
BRANCH  17  24
HETATM   24  N2  MLD A1345     -17.408 -76.440 -63.630  1.00 17.81    -0.232 NA
BRANCH  24  25
HETATM   25  CAB MLD A1345     -17.687 -75.149 -63.885  1.00 18.42     0.252 C 
HETATM   26  CAA MLD A1345     -17.384 -74.131 -62.811  1.00 10.82     0.100 C 
HETATM   27  OAC MLD A1345     -18.191 -74.766 -64.973  1.00 18.37    -0.271 OA
ENDBRANCH  24  25
ENDBRANCH  17  24
BRANCH  22  28
HETATM   28  C6  MLD A1345     -17.759 -81.516 -66.224  1.00 25.09     0.215 C 
HETATM   29  O6  MLD A1345     -18.291 -80.911 -67.402  1.00 30.25    -0.218 OA
ENDBRANCH  22  28
ENDBRANCH  15  16
ENDBRANCH   8  15
BRANCH  14  30
HETATM   30  NAD MLD A1345     -11.148 -76.452 -67.590  1.00 19.73    -0.232 NA
BRANCH  30  31
HETATM   31  CAE MLD A1345     -10.718 -76.494 -68.894  1.00 19.07     0.252 C 
HETATM   32  CAF MLD A1345      -9.206 -76.302 -69.115  1.00 16.52     0.100 C 
HETATM   33  OAG MLD A1345     -11.459 -76.670 -69.873  1.00 18.46    -0.271 OA
ENDBRANCH  30  31
ENDBRANCH  14  30
ENDBRANCH   6   7
ENDBRANCH   4   6
ENDBRANCH   2   4
ENDBRANCH   1   2
BRANCH   1  34
HETATM   34  CA  MLD A1345     -15.991 -78.476 -71.430  1.00 24.10     0.186 C 
HETATM   35  CB  MLD A1345     -15.023 -78.710 -72.603  1.00 20.52     0.037 C 
BRANCH  34  36
HETATM   36  C   MLD A1345     -16.555 -79.832 -71.053  1.00 25.34     0.274 C 
HETATM   37  O   MLD A1345     -16.198 -80.421 -70.036  1.00 30.15    -0.268 OA
BRANCH  36  38
HETATM   38  NAN MLD A1345     -17.461 -80.287 -71.933  1.00 27.42    -0.227 NA
BRANCH  38  39
HETATM   39  CAO MLD A1345     -18.088 -81.616 -71.911  1.00 30.32     0.193 C 
BRANCH  39  40
HETATM   40  CAP MLD A1345     -19.614 -81.393 -72.061  1.00 34.96     0.209 C 
HETATM   41  OAQ MLD A1345     -20.145 -80.644 -71.247  1.00 39.39    -0.646 OA
HETATM   42  OBA MLD A1345     -20.273 -81.999 -73.057  1.00 36.93    -0.646 OA
ENDBRANCH  39  40
BRANCH  39  43
HETATM   43  CBB MLD A1345     -17.544 -82.466 -73.064  1.00 27.32     0.045 C 
BRANCH  43  44
HETATM   44  CBC MLD A1345     -17.118 -81.687 -74.287  1.00 25.34     0.092 C 
BRANCH  44  45
HETATM   45  CBD MLD A1345     -17.035 -82.467 -75.574  1.00 24.37     0.252 C 
HETATM   46  OBE MLD A1345     -17.972 -82.352 -76.408  1.00 25.97    -0.271 OA
BRANCH  45  47
HETATM   47  NBF MLD A1345     -15.972 -83.215 -75.739  1.00 22.82    -0.230 NA
BRANCH  47  48
HETATM   48  CBG MLD A1345     -16.011 -84.562 -76.392  1.00 25.61     0.186 C 
BRANCH  48  49
HETATM   49  CBH MLD A1345     -15.161 -85.610 -75.596  1.00 28.41     0.274 C 
HETATM   50  OBI MLD A1345     -14.305 -86.316 -76.195  1.00 31.39    -0.268 OA
BRANCH  49  51
HETATM   51  NBJ MLD A1345     -15.456 -85.611 -74.311  1.00 31.52    -0.227 NA
BRANCH  51  52
HETATM   52  CBK MLD A1345     -15.769 -86.798 -73.474  1.00 36.16     0.193 C 
HETATM   53  CBL MLD A1345     -16.962 -86.609 -72.535  1.00 34.46     0.038 C 
BRANCH  52  54
HETATM   54  CBM MLD A1345     -14.453 -87.152 -72.740  1.00 39.91     0.209 C 
HETATM   55  OBN MLD A1345     -13.824 -88.242 -73.240  1.00 45.60    -0.646 OA
HETATM   56  OBO MLD A1345     -13.992 -86.532 -71.800  1.00 40.95    -0.646 OA
ENDBRANCH  52  54
ENDBRANCH  51  52
ENDBRANCH  49  51
ENDBRANCH  48  49
BRANCH  48  57
HETATM   57  CBP MLD A1345     -15.530 -84.431 -77.862  1.00 21.92     0.034 C 
BRANCH  57  58
HETATM   58  CBQ MLD A1345     -16.496 -84.904 -78.937  1.00 20.19     0.005 C 
BRANCH  58  59
HETATM   59  CBR MLD A1345     -15.822 -84.988 -80.311  1.00 18.45     0.051 C 
BRANCH  59  60
HETATM   60  CBS MLD A1345     -16.340 -83.945 -81.312  1.00 21.14     0.387 C 
HETATM   61  NBW MLD A1345     -15.387 -83.828 -82.481  1.00 21.06     0.628 N 
BRANCH  60  62
HETATM   62  CBT MLD A1345     -17.754 -84.358 -81.784  1.00 19.97     0.224 C 
HETATM   63  OBU MLD A1345     -18.799 -83.977 -81.299  1.00 23.54    -0.646 OA
HETATM   64  OBV MLD A1345     -17.728 -85.216 -82.813  1.00 18.24    -0.646 OA
ENDBRANCH  60  62
ENDBRANCH  59  60
ENDBRANCH  58  59
ENDBRANCH  57  58
ENDBRANCH  48  57
ENDBRANCH  47  48
ENDBRANCH  45  47
ENDBRANCH  44  45
ENDBRANCH  43  44
ENDBRANCH  39  43
ENDBRANCH  38  39
ENDBRANCH  36  38
ENDBRANCH  34  36
ENDBRANCH   1  34
TORSDOF 24
ENDMDL
MODEL 8
REMARK VINA RESULT:    -7.702      1.719      2.016
REMARK INTER + INTRA:         -24.662
REMARK INTER:                 -19.160
REMARK INTRA:                  -5.502
REMARK UNBOUND:                -3.454
REMARK  30 active torsions:
REMARK  status: ('A' for Active; 'I' for Inactive)
REMARK    1  A    between atoms: CAL_5516  and  N_5518 
REMARK    2  A    between atoms: N_5518  and  CA_5519 
REMARK    3  A    between atoms: CA_5519  and  C_5521 
REMARK    4  A    between atoms: CA2_5507  and  NAD_5508 
REMARK    5  A    between atoms: CA3_5512  and  OAH_5513 
REMARK    6  A    between atoms: O1_5500  and  CA4_5501 
REMARK    7  A    between atoms: CAB_5487  and  N2_5489 
REMARK    8  A    between atoms: NAD_5508  and  CAE_5509 
REMARK    9  A    between atoms: OAH_5513  and  CAI_5514 
REMARK   10  A    between atoms: CAI_5514  and  CAL_5516 
REMARK   11  A    between atoms: NAN_5523  and  CAO_5524 
REMARK   12  A    between atoms: CAO_5524  and  CAP_5525 
REMARK   13  A    between atoms: CAO_5524  and  CBB_5528 
REMARK   14  A    between atoms: C_5521  and  NAN_5523 
REMARK   15  A    between atoms: CBB_5528  and  CBC_5529 
REMARK   16  A    between atoms: CBC_5529  and  CBD_5530 
REMARK   17  A    between atoms: CBD_5530  and  NBF_5532 
REMARK   18  A    between atoms: NBF_5532  and  CBG_5533 
REMARK   19  A    between atoms: CBG_5533  and  CBH_5534 
REMARK   20  A    between atoms: CBG_5533  and  CBP_5542 
REMARK   21  A    between atoms: CBH_5534  and  NBJ_5536 
REMARK   22  A    between atoms: NBJ_5536  and  CBK_5537 
REMARK   23  A    between atoms: CBK_5537  and  CBM_5539 
REMARK   24  A    between atoms: CBP_5542  and  CBQ_5543 
REMARK   25  A    between atoms: CBQ_5543  and  CBR_5544 
REMARK   26  A    between atoms: CBR_5544  and  CBS_5545 
REMARK   27  A    between atoms: CBS_5545  and  CBT_5546 
REMARK   28  A    between atoms: C1_5499  and  O1_5500 
REMARK   29  A    between atoms: N2_5489  and  C2_5490 
REMARK   30  A    between atoms: C5_5495  and  C6_5496 
ROOT
HETATM    1  N   MLD A1345     -14.881 -76.652 -70.835  1.00 21.46    -0.228 NA
ENDROOT
BRANCH   1   2
HETATM    2  CAL MLD A1345     -15.538 -75.995 -69.859  1.00 21.18     0.279 C 
HETATM    3  OAM MLD A1345     -16.710 -75.645 -69.939  1.00 23.64    -0.268 OA
BRANCH   2   4
HETATM    4  CAI MLD A1345     -14.718 -75.716 -68.617  1.00 19.49     0.195 C 
HETATM    5  CAJ MLD A1345     -15.547 -75.045 -67.506  1.00 18.07     0.042 C 
BRANCH   4   6
HETATM    6  OAH MLD A1345     -14.187 -76.953 -68.117  1.00 18.35    -0.345 OA
BRANCH   6   7
HETATM    7  CA3 MLD A1345     -13.313 -77.006 -66.954  1.00 19.29     0.173 C 
HETATM    8  CA4 MLD A1345     -13.977 -77.944 -65.889  1.00 20.47     0.177 C 
HETATM    9  CA5 MLD A1345     -12.959 -78.049 -64.662  1.00 19.77     0.177 C 
HETATM   10  CA6 MLD A1345     -12.382 -79.470 -64.730  1.00 20.25     0.177 C 
HETATM   11  OA5 MLD A1345     -11.766 -77.310 -64.826  1.00 19.37    -0.327 OA
HETATM   12  OA6 MLD A1345     -11.247 -79.259 -65.612  1.00 20.57    -0.327 OA
HETATM   13  CA1 MLD A1345     -11.192 -77.970 -65.974  1.00 18.75     0.262 C 
HETATM   14  CA2 MLD A1345     -11.827 -77.389 -67.299  1.00 19.58     0.192 C 
BRANCH   8  15
HETATM   15  O1  MLD A1345     -15.203 -77.284 -65.478  1.00 21.83    -0.327 OA
BRANCH  15  16
HETATM   16  C1  MLD A1345     -16.084 -78.339 -64.994  1.00 21.28     0.262 C 
HETATM   17  C2  MLD A1345     -17.512 -77.561 -64.685  1.00 21.32     0.195 C 
HETATM   18  C3  MLD A1345     -18.498 -78.617 -64.133  1.00 23.02     0.212 C 
HETATM   19  O3  MLD A1345     -19.764 -78.001 -63.890  1.00 21.43    -0.218 OA
HETATM   20  C4  MLD A1345     -18.677 -79.721 -65.131  1.00 24.18     0.214 C 
HETATM   21  O4  MLD A1345     -19.593 -80.667 -64.580  1.00 30.58    -0.218 OA
HETATM   22  C5  MLD A1345     -17.304 -80.400 -65.403  1.00 25.56     0.184 C 
HETATM   23  O5  MLD A1345     -16.388 -79.394 -65.941  1.00 24.80    -0.327 OA
BRANCH  17  24
HETATM   24  N2  MLD A1345     -17.329 -76.484 -63.675  1.00 17.81    -0.232 NA
BRANCH  24  25
HETATM   25  CAB MLD A1345     -17.688 -75.202 -63.871  1.00 18.42     0.252 C 
HETATM   26  CAA MLD A1345     -17.432 -74.214 -62.759  1.00 10.82     0.100 C 
HETATM   27  OAC MLD A1345     -18.230 -74.806 -64.936  1.00 18.37    -0.271 OA
ENDBRANCH  24  25
ENDBRANCH  17  24
BRANCH  22  28
HETATM   28  C6  MLD A1345     -17.520 -81.479 -66.438  1.00 25.09     0.215 C 
HETATM   29  O6  MLD A1345     -17.866 -80.831 -67.661  1.00 30.25    -0.218 OA
ENDBRANCH  22  28
ENDBRANCH  15  16
ENDBRANCH   8  15
BRANCH  14  30
HETATM   30  NAD MLD A1345     -11.092 -76.191 -67.676  1.00 19.73    -0.232 NA
BRANCH  30  31
HETATM   31  CAE MLD A1345      -9.868 -76.401 -68.264  1.00 19.07     0.252 C 
HETATM   32  CAF MLD A1345      -8.637 -76.055 -67.407  1.00 16.52     0.100 C 
HETATM   33  OAG MLD A1345      -9.706 -76.838 -69.414  1.00 18.46    -0.271 OA
ENDBRANCH  30  31
ENDBRANCH  14  30
ENDBRANCH   6   7
ENDBRANCH   4   6
ENDBRANCH   2   4
ENDBRANCH   1   2
BRANCH   1  34
HETATM   34  CA  MLD A1345     -15.461 -77.480 -71.925  1.00 24.10     0.186 C 
HETATM   35  CB  MLD A1345     -14.423 -77.759 -73.026  1.00 20.52     0.037 C 
BRANCH  34  36
HETATM   36  C   MLD A1345     -15.971 -78.830 -71.457  1.00 25.34     0.274 C 
HETATM   37  O   MLD A1345     -16.921 -79.387 -72.002  1.00 30.15    -0.268 OA
BRANCH  36  38
HETATM   38  NAN MLD A1345     -15.278 -79.322 -70.418  1.00 27.42    -0.227 NA
BRANCH  38  39
HETATM   39  CAO MLD A1345     -14.286 -80.404 -70.484  1.00 30.32     0.193 C 
BRANCH  39  40
HETATM   40  CAP MLD A1345     -13.011 -79.887 -69.771  1.00 34.96     0.209 C 
HETATM   41  OAQ MLD A1345     -12.706 -80.437 -68.718  1.00 39.39    -0.646 OA
HETATM   42  OBA MLD A1345     -12.302 -78.896 -70.327  1.00 36.93    -0.646 OA
ENDBRANCH  39  40
BRANCH  39  43
HETATM   43  CBB MLD A1345     -14.833 -81.654 -69.785  1.00 27.32     0.045 C 
BRANCH  43  44
HETATM   44  CBC MLD A1345     -16.025 -82.293 -70.459  1.00 25.34     0.092 C 
BRANCH  44  45
HETATM   45  CBD MLD A1345     -15.967 -83.790 -70.627  1.00 24.37     0.252 C 
HETATM   46  OBE MLD A1345     -15.367 -84.469 -69.752  1.00 25.97    -0.271 OA
BRANCH  45  47
HETATM   47  NBF MLD A1345     -16.563 -84.285 -71.683  1.00 22.82    -0.230 NA
BRANCH  47  48
HETATM   48  CBG MLD A1345     -17.753 -83.645 -72.328  1.00 25.61     0.186 C 
BRANCH  48  49
HETATM   49  CBH MLD A1345     -19.090 -84.301 -71.841  1.00 28.41     0.274 C 
HETATM   50  OBI MLD A1345     -19.237 -85.551 -71.894  1.00 31.39    -0.268 OA
BRANCH  49  51
HETATM   51  NBJ MLD A1345     -19.946 -83.403 -71.392  1.00 31.52    -0.227 NA
BRANCH  51  52
HETATM   52  CBK MLD A1345     -19.748 -82.490 -70.238  1.00 36.16     0.193 C 
HETATM   53  CBL MLD A1345     -20.522 -82.889 -68.980  1.00 34.46     0.038 C 
BRANCH  52  54
HETATM   54  CBM MLD A1345     -20.098 -81.074 -70.758  1.00 39.91     0.209 C 
HETATM   55  OBN MLD A1345     -20.488 -80.216 -69.785  1.00 45.60    -0.646 OA
HETATM   56  OBO MLD A1345     -20.039 -80.727 -71.922  1.00 40.95    -0.646 OA
ENDBRANCH  52  54
ENDBRANCH  51  52
ENDBRANCH  49  51
ENDBRANCH  48  49
BRANCH  48  57
HETATM   57  CBP MLD A1345     -17.604 -83.725 -73.871  1.00 21.92     0.034 C 
BRANCH  57  58
HETATM   58  CBQ MLD A1345     -16.410 -84.505 -74.397  1.00 20.19     0.005 C 
BRANCH  58  59
HETATM   59  CBR MLD A1345     -16.812 -85.902 -74.883  1.00 18.45     0.051 C 
BRANCH  59  60
HETATM   60  CBS MLD A1345     -15.627 -86.870 -75.015  1.00 21.14     0.387 C 
HETATM   61  NBW MLD A1345     -16.105 -88.299 -74.880  1.00 21.06     0.628 N 
BRANCH  60  62
HETATM   62  CBT MLD A1345     -14.935 -86.639 -76.378  1.00 19.97     0.224 C 
HETATM   63  OBU MLD A1345     -13.737 -86.647 -76.572  1.00 23.54    -0.646 OA
HETATM   64  OBV MLD A1345     -15.806 -86.411 -77.370  1.00 18.24    -0.646 OA
ENDBRANCH  60  62
ENDBRANCH  59  60
ENDBRANCH  58  59
ENDBRANCH  57  58
ENDBRANCH  48  57
ENDBRANCH  47  48
ENDBRANCH  45  47
ENDBRANCH  44  45
ENDBRANCH  43  44
ENDBRANCH  39  43
ENDBRANCH  38  39
ENDBRANCH  36  38
ENDBRANCH  34  36
ENDBRANCH   1  34
TORSDOF 24
ENDMDL
MODEL 9
REMARK VINA RESULT:    -7.674      5.793     14.288
REMARK INTER + INTRA:         -24.587
REMARK INTER:                 -21.133
REMARK INTRA:                  -3.454
REMARK UNBOUND:                -3.454
REMARK  30 active torsions:
REMARK  status: ('A' for Active; 'I' for Inactive)
REMARK    1  A    between atoms: CAL_5516  and  N_5518 
REMARK    2  A    between atoms: N_5518  and  CA_5519 
REMARK    3  A    between atoms: CA_5519  and  C_5521 
REMARK    4  A    between atoms: CA2_5507  and  NAD_5508 
REMARK    5  A    between atoms: CA3_5512  and  OAH_5513 
REMARK    6  A    between atoms: O1_5500  and  CA4_5501 
REMARK    7  A    between atoms: CAB_5487  and  N2_5489 
REMARK    8  A    between atoms: NAD_5508  and  CAE_5509 
REMARK    9  A    between atoms: OAH_5513  and  CAI_5514 
REMARK   10  A    between atoms: CAI_5514  and  CAL_5516 
REMARK   11  A    between atoms: NAN_5523  and  CAO_5524 
REMARK   12  A    between atoms: CAO_5524  and  CAP_5525 
REMARK   13  A    between atoms: CAO_5524  and  CBB_5528 
REMARK   14  A    between atoms: C_5521  and  NAN_5523 
REMARK   15  A    between atoms: CBB_5528  and  CBC_5529 
REMARK   16  A    between atoms: CBC_5529  and  CBD_5530 
REMARK   17  A    between atoms: CBD_5530  and  NBF_5532 
REMARK   18  A    between atoms: NBF_5532  and  CBG_5533 
REMARK   19  A    between atoms: CBG_5533  and  CBH_5534 
REMARK   20  A    between atoms: CBG_5533  and  CBP_5542 
REMARK   21  A    between atoms: CBH_5534  and  NBJ_5536 
REMARK   22  A    between atoms: NBJ_5536  and  CBK_5537 
REMARK   23  A    between atoms: CBK_5537  and  CBM_5539 
REMARK   24  A    between atoms: CBP_5542  and  CBQ_5543 
REMARK   25  A    between atoms: CBQ_5543  and  CBR_5544 
REMARK   26  A    between atoms: CBR_5544  and  CBS_5545 
REMARK   27  A    between atoms: CBS_5545  and  CBT_5546 
REMARK   28  A    between atoms: C1_5499  and  O1_5500 
REMARK   29  A    between atoms: N2_5489  and  C2_5490 
REMARK   30  A    between atoms: C5_5495  and  C6_5496 
ROOT
HETATM    1  N   MLD A1345     -17.124 -83.874 -76.567  1.00 21.46    -0.228 NA
ENDROOT
BRANCH   1   2
HETATM    2  CAL MLD A1345     -16.561 -84.944 -77.162  1.00 21.18     0.279 C 
HETATM    3  OAM MLD A1345     -17.025 -86.077 -77.115  1.00 23.64    -0.268 OA
BRANCH   2   4
HETATM    4  CAI MLD A1345     -15.284 -84.649 -77.922  1.00 19.49     0.195 C 
HETATM    5  CAJ MLD A1345     -14.032 -85.156 -77.184  1.00 18.07     0.042 C 
BRANCH   4   6
HETATM    6  OAH MLD A1345     -15.349 -85.278 -79.212  1.00 18.35    -0.345 OA
BRANCH   6   7
HETATM    7  CA3 MLD A1345     -15.824 -84.573 -80.394  1.00 19.29     0.173 C 
HETATM    8  CA4 MLD A1345     -14.618 -84.414 -81.381  1.00 20.47     0.177 C 
HETATM    9  CA5 MLD A1345     -15.187 -83.714 -82.701  1.00 19.77     0.177 C 
HETATM   10  CA6 MLD A1345     -15.195 -84.811 -83.775  1.00 20.25     0.177 C 
HETATM   11  OA5 MLD A1345     -16.570 -83.424 -82.660  1.00 19.37    -0.327 OA
HETATM   12  OA6 MLD A1345     -16.507 -85.394 -83.557  1.00 20.57    -0.327 OA
HETATM   13  CA1 MLD A1345     -17.124 -84.753 -82.554  1.00 18.75     0.262 C 
HETATM   14  CA2 MLD A1345     -17.098 -85.225 -81.046  1.00 19.58     0.192 C 
BRANCH   8  15
HETATM   15  O1  MLD A1345     -13.663 -83.546 -80.716  1.00 21.83    -0.327 OA
BRANCH  15  16
HETATM   16  C1  MLD A1345     -12.407 -83.707 -81.437  1.00 21.28     0.262 C 
HETATM   17  C2  MLD A1345     -12.186 -85.346 -81.498  1.00 21.32     0.195 C 
HETATM   18  C3  MLD A1345     -10.844 -85.599 -82.226  1.00 23.02     0.212 C 
HETATM   19  O3  MLD A1345     -10.628 -87.007 -82.343  1.00 21.43    -0.218 OA
HETATM   20  C4  MLD A1345     -10.885 -84.997 -83.598  1.00 24.18     0.214 C 
HETATM   21  O4  MLD A1345      -9.632 -85.257 -84.229  1.00 30.58    -0.218 OA
HETATM   22  C5  MLD A1345     -11.120 -83.464 -83.483  1.00 25.56     0.184 C 
HETATM   23  O5  MLD A1345     -12.399 -83.240 -82.809  1.00 24.80    -0.327 OA
BRANCH  17  24
HETATM   24  N2  MLD A1345     -12.121 -85.931 -80.131  1.00 17.81    -0.232 NA
BRANCH  24  25
HETATM   25  CAB MLD A1345     -12.540 -87.172 -79.826  1.00 18.42     0.252 C 
HETATM   26  CAA MLD A1345     -11.807 -87.922 -78.739  1.00 10.82     0.100 C 
HETATM   27  OAC MLD A1345     -13.506 -87.726 -80.414  1.00 18.37    -0.271 OA
ENDBRANCH  24  25
ENDBRANCH  17  24
BRANCH  22  28
HETATM   28  C6  MLD A1345     -11.191 -82.902 -84.884  1.00 25.09     0.215 C 
HETATM   29  O6  MLD A1345     -10.947 -81.499 -84.791  1.00 30.25    -0.218 OA
ENDBRANCH  22  28
ENDBRANCH  15  16
ENDBRANCH   8  15
BRANCH  14  30
HETATM   30  NAD MLD A1345     -18.293 -84.722 -80.385  1.00 19.73    -0.232 NA
BRANCH  30  31
HETATM   31  CAE MLD A1345     -19.484 -85.256 -80.815  1.00 19.07     0.252 C 
HETATM   32  CAF MLD A1345     -19.486 -86.771 -81.093  1.00 16.52     0.100 C 
HETATM   33  OAG MLD A1345     -20.524 -84.604 -80.988  1.00 18.46    -0.271 OA
ENDBRANCH  30  31
ENDBRANCH  14  30
ENDBRANCH   6   7
ENDBRANCH   4   6
ENDBRANCH   2   4
ENDBRANCH   1   2
BRANCH   1  34
HETATM   34  CA  MLD A1345     -17.483 -83.713 -75.134  1.00 24.10     0.186 C 
HETATM   35  CB  MLD A1345     -16.311 -84.104 -74.217  1.00 20.52     0.037 C 
BRANCH  34  36
HETATM   36  C   MLD A1345     -17.873 -82.295 -74.761  1.00 25.34     0.274 C 
HETATM   37  O   MLD A1345     -17.883 -81.388 -75.589  1.00 30.15    -0.268 OA
BRANCH  36  38
HETATM   38  NAN MLD A1345     -18.200 -82.164 -73.465  1.00 27.42    -0.227 NA
BRANCH  38  39
HETATM   39  CAO MLD A1345     -17.962 -80.975 -72.636  1.00 30.32     0.193 C 
BRANCH  39  40
HETATM   40  CAP MLD A1345     -18.815 -81.145 -71.354  1.00 34.96     0.209 C 
HETATM   41  OAQ MLD A1345     -18.242 -81.597 -70.367  1.00 39.39    -0.646 OA
HETATM   42  OBA MLD A1345     -20.105 -80.788 -71.368  1.00 36.93    -0.646 OA
ENDBRANCH  39  40
BRANCH  39  43
HETATM   43  CBB MLD A1345     -16.472 -80.870 -72.292  1.00 27.32     0.045 C 
BRANCH  43  44
HETATM   44  CBC MLD A1345     -15.704 -79.839 -73.085  1.00 25.34     0.092 C 
BRANCH  44  45
HETATM   45  CBD MLD A1345     -15.355 -78.567 -72.355  1.00 24.37     0.252 C 
HETATM   46  OBE MLD A1345     -15.307 -77.492 -73.011  1.00 25.97    -0.271 OA
BRANCH  45  47
HETATM   47  NBF MLD A1345     -15.130 -78.672 -71.069  1.00 22.82    -0.230 NA
BRANCH  47  48
HETATM   48  CBG MLD A1345     -15.624 -77.674 -70.067  1.00 25.61     0.186 C 
BRANCH  48  49
HETATM   49  CBH MLD A1345     -14.499 -76.659 -69.667  1.00 28.41     0.274 C 
HETATM   50  OBI MLD A1345     -14.805 -75.524 -69.214  1.00 31.39    -0.268 OA
BRANCH  49  51
HETATM   51  NBJ MLD A1345     -13.294 -77.160 -69.852  1.00 31.52    -0.227 NA
BRANCH  51  52
HETATM   52  CBK MLD A1345     -12.311 -77.520 -68.798  1.00 36.16     0.193 C 
HETATM   53  CBL MLD A1345     -11.027 -76.689 -68.825  1.00 34.46     0.038 C 
BRANCH  52  54
HETATM   54  CBM MLD A1345     -12.069 -79.041 -68.953  1.00 39.91     0.209 C 
HETATM   55  OBN MLD A1345     -11.938 -79.446 -70.238  1.00 45.60    -0.646 OA
HETATM   56  OBO MLD A1345     -11.993 -79.830 -68.030  1.00 40.95    -0.646 OA
ENDBRANCH  52  54
ENDBRANCH  51  52
ENDBRANCH  49  51
ENDBRANCH  48  49
BRANCH  48  57
HETATM   57  CBP MLD A1345     -16.184 -78.427 -68.830  1.00 21.92     0.034 C 
BRANCH  57  58
HETATM   58  CBQ MLD A1345     -17.142 -77.651 -67.941  1.00 20.19     0.005 C 
BRANCH  58  59
HETATM   59  CBR MLD A1345     -17.217 -78.246 -66.530  1.00 18.45     0.051 C 
BRANCH  59  60
HETATM   60  CBS MLD A1345     -16.786 -77.266 -65.428  1.00 21.14     0.387 C 
HETATM   61  NBW MLD A1345     -15.635 -76.411 -65.913  1.00 21.06     0.628 N 
BRANCH  60  62
HETATM   62  CBT MLD A1345     -17.997 -76.395 -65.025  1.00 19.97     0.224 C 
HETATM   63  OBU MLD A1345     -18.857 -76.707 -64.227  1.00 23.54    -0.646 OA
HETATM   64  OBV MLD A1345     -18.026 -75.217 -65.664  1.00 18.24    -0.646 OA
ENDBRANCH  60  62
ENDBRANCH  59  60
ENDBRANCH  58  59
ENDBRANCH  57  58
ENDBRANCH  48  57
ENDBRANCH  47  48
ENDBRANCH  45  47
ENDBRANCH  44  45
ENDBRANCH  43  44
ENDBRANCH  39  43
ENDBRANCH  38  39
ENDBRANCH  36  38
ENDBRANCH  34  36
ENDBRANCH   1  34
TORSDOF 24
ENDMDL
